<?xml version="1.0" encoding="UTF-8"?>
<!DOCTYPE transitSchedule SYSTEM "http://www.matsim.org/files/dtd/transitSchedule_v2.dtd">

<transitSchedule>
	<attributes>
		<attribute name="coordinateReferenceSystem" class="java.lang.String">EPSG:32635</attribute>
	</attributes>

	<transitStops>
		<stopFacility id="1285.link:374288778_6" x="682765.6621936791" y="6649371.834049552" linkRefId="374288778_6" name="12-13 ЛИНИИ (ПО СРЕДНЕМУ ПР. В.О.)" isBlocking="false"/>
		<stopFacility id="1287.link:374288778_2" x="682353.2597154693" y="6649092.438768464" linkRefId="374288778_2" name="18-19 ЛИНИИ" isBlocking="false"/>
		<stopFacility id="1290.link:362775804_0" x="683598.4097153002" y="6649794.297542723" linkRefId="362775804_0" name="1-Я И КАДЕТСКАЯ ЛИНИЯ,УГ. СРЕДНЕГО ПР." isBlocking="false"/>
		<stopFacility id="1291.link:141966307_1" x="685065.3683044147" y="6646680.222025604" linkRefId="141966307_1" name="1-Я КРАСНОАРМЕЙСКАЯ УЛ." isBlocking="false"/>
		<stopFacility id="1294.link:374288778_0" x="682080.6994431319" y="6648917.140200986" linkRefId="374288778_0" name="22-23 ЛИНИИ" isBlocking="false"/>
		<stopFacility id="1323.link:346589649_4" x="684930.9221111991" y="6646289.644247884" linkRefId="346589649_4" name=" САД ВАЛЕТИНА ПИКУЛЯ" isBlocking="false"/>
		<stopFacility id="1333.link:528751502_0_r" x="681617.3234699594" y="6654698.231954282" linkRefId="528751502_0_r" name="СТ. МЕТРО &quot;СТАРАЯ ДЕРЕВНЯ&quot;" isBlocking="false"/>
		<stopFacility id="1340.link:321360989_1" x="687725.9976609305" y="6646570.370935562" linkRefId="321360989_1" name="АВТОВОКЗАЛ" isBlocking="false"/>
		<stopFacility id="1349.link:143558793_0" x="685786.2750926912" y="6648229.829702574" linkRefId="143558793_0" name="АПРАКСИН ПЕР.,ТЕАТР &quot;ПРИЮТ КОМЕДИАНТА&quot;" isBlocking="false"/>
		<stopFacility id="1357.link:143519854_0" x="685570.8546189336" y="6648951.581270156" linkRefId="143519854_0" name="Б. КОНЮШЕННАЯ УЛ." isBlocking="false"/>
		<stopFacility id="1359.link:194795482_1" x="691252.8425496828" y="6645090.575309954" linkRefId="194795482_1" name="БОЛЬШОЙ СМОЛЕНСКИЙ ПР." isBlocking="false"/>
		<stopFacility id="1361.link:397350652_0" x="684525.9927237016" y="6645758.066069036" linkRefId="397350652_0" name="БАЛТИЙСКИЙ ВОКЗАЛ" isBlocking="false"/>
		<stopFacility id="1383.link:156450030_0" x="685112.8240321685" y="6651769.2030404145" linkRefId="156450030_0" name="Б. МОНЕТНАЯ УЛ." isBlocking="false"/>
		<stopFacility id="1407.link:157866802_0" x="691106.1965649177" y="6636987.8490995" linkRefId="157866802_0" name="БУДАПЕШТСКАЯ УЛ. УГ. М. БАЛКАНСКОЙ УЛ." isBlocking="false"/>
		<stopFacility id="1412.link:436823431_0" x="692963.7204249441" y="6642233.016280456" linkRefId="436823431_0" name="БУЛЬВАР КРАСНЫХ ЗОРЬ" isBlocking="false"/>
		<stopFacility id="1417.link:31396164_0" x="690041.5992254708" y="6640599.164529294" linkRefId="31396164_0" name="БУХАРЕСТСКАЯ УЛ." isBlocking="false"/>
		<stopFacility id="1420.link:196088070_0" x="689191.6086026727" y="6641971.362122531" linkRefId="196088070_0" name="СТ. МЕТРО &quot;МЕЖДУНАРОДНАЯ&quot;" isBlocking="false"/>
		<stopFacility id="1424.link:331468561_0" x="688981.0741439331" y="6642256.580983631" linkRefId="331468561_0" name="МАГАЗИН &quot;ГРАНАТ&quot;" isBlocking="false"/>
		<stopFacility id="1450.link:198568142_0" x="681561.1649985433" y="6656069.510991219" linkRefId="198568142_0" name="ГАККЕЛЕВСКАЯ УЛ. УГ. БОГАТЫРСКОГО ПР." isBlocking="false"/>
		<stopFacility id="1465.link:509508053_0" x="689604.167352889" y="6658202.505321777" linkRefId="509508053_0" name="ГРАЖДАНСКИЙ ПР.,90" isBlocking="false"/>
		<stopFacility id="14669.link:123342726_0" x="689918.6402726765" y="6638011.240186277" linkRefId="123342726_0" name="УГ. ДУНАЙСКОГО, И КУПЧИНСКОЙ УЛИЦЫ" isBlocking="false"/>
		<stopFacility id="14700.link:538610190_3" x="692305.8152389553" y="6643203.674313373" linkRefId="538610190_3" name="УЛ. ФАРФОРОВСКАЯ" isBlocking="false"/>
		<stopFacility id="14701.link:538610189_6" x="692331.8529836531" y="6643142.884355452" linkRefId="538610189_6" name="УЛ. ФАРФОРОВСКАЯ" isBlocking="false"/>
		<stopFacility id="1472.link:347355173_0" x="682128.4477059885" y="6638653.584659681" linkRefId="347355173_0" name="ДАЧНЫЙ ПР." isBlocking="false"/>
		<stopFacility id="1472.link:395875261_0" x="682128.4477059885" y="6638653.584659681" linkRefId="395875261_0" name="ДАЧНЫЙ ПР." isBlocking="false"/>
		<stopFacility id="14723.link:143681910_0" x="686361.0529782376" y="6648825.361555195" linkRefId="143681910_0" name="НЕВСКИЙ ПР." isBlocking="false"/>
		<stopFacility id="1476.link:143525639_0" x="686577.6491332202" y="6648722.282674407" linkRefId="143525639_0" name="ДВОРЕЦ ТВОРЧЕСТВА ЮНЫХ" isBlocking="false"/>
		<stopFacility id="1477.link:150184621_0" x="684988.2721628387" y="6649220.100015403" linkRefId="150184621_0" name="ДВОРЦОВАЯ НАБ." isBlocking="false"/>
		<stopFacility id="1477.link:150184627_0" x="684988.2721628387" y="6649220.100015403" linkRefId="150184627_0" name="ДВОРЦОВАЯ НАБ." isBlocking="false"/>
		<stopFacility id="1477.link:237296237_0" x="684988.2721628387" y="6649220.100015403" linkRefId="237296237_0" name="ДВОРЦОВАЯ НАБ." isBlocking="false"/>
		<stopFacility id="14792.link:347257557_0" x="681082.9249613531" y="6637770.275240229" linkRefId="347257557_0" name="ТОРГОВЫЙ ЦЕНТР" isBlocking="false"/>
		<stopFacility id="14793.link:238415_0" x="681116.3489647022" y="6637764.09907473" linkRefId="238415_0" name="ТОРГОВЫЙ ЦЕНТР" isBlocking="false"/>
		<stopFacility id="1486.link:544345544_0" x="687633.9520106928" y="6645888.098363388" linkRefId="544345544_0" name="ДНЕПРОПЕТРОВСКАЯ УЛ." isBlocking="false"/>
		<stopFacility id="1487.link:159433580_0" x="687714.6323958281" y="6646178.449248164" linkRefId="159433580_0" name="ДНЕПРОПЕТРОВСКАЯ УЛ. 65" isBlocking="false"/>
		<stopFacility id="1508.link:187230874_1" x="685263.9696456082" y="6657580.879306572" linkRefId="187230874_1" name="ДРЕЗДЕНСКАЯ УЛ." isBlocking="false"/>
		<stopFacility id="1514.link:199621879_0" x="688323.2794862491" y="6637527.1786087565" linkRefId="199621879_0" name="ДУНАЙСКИЙ ПР.,УГ. ПР. КОСМОНАВТОВ" isBlocking="false"/>
		<stopFacility id="1533.link:316254311_0_r" x="691500.0091845136" y="6637106.3281154595" linkRefId="316254311_0_r" name="ЗАГРЕБСКИЙ БУЛЬВАР" isBlocking="false"/>
		<stopFacility id="1538.link:143881926_2" x="691413.9562713506" y="6648721.4396873135" linkRefId="143881926_2" name="ЗАНЕВСКИЙ ПР.,З2" isBlocking="false"/>
		<stopFacility id="1542.link:141829617_0" x="685745.4500180038" y="6643751.127179779" linkRefId="141829617_0" name="ЗАСТАВСКАЯ УЛ." isBlocking="false"/>
		<stopFacility id="1551.link:436824144_0" x="692828.4267665563" y="6642509.796866048" linkRefId="436824144_0" name="ИВАНОВСКАЯ УЛ." isBlocking="false"/>
		<stopFacility id="1558.link:381437502_0_r" x="686387.0191210053" y="6649097.4172009565" linkRefId="381437502_0_r" name="ИНЖЕНЕРНАЯ УЛ." isBlocking="false"/>
		<stopFacility id="1568.link:143818834_0" x="688965.4906647205" y="6647905.184431207" linkRefId="143818834_0" name="ИСПОЛКОМСКАЯ УЛ." isBlocking="false"/>
		<stopFacility id="1574.link:384553319_1" x="684122.0732249117" y="6653629.8637038125" linkRefId="384553319_1" name="КАМЕННЫЙ ОСТРОВ" isBlocking="false"/>
		<stopFacility id="1574.link:400894475_0" x="684122.0732249117" y="6653629.8637038125" linkRefId="400894475_0" name="КАМЕННЫЙ ОСТРОВ" isBlocking="false"/>
		<stopFacility id="1575.link:418319612_0" x="681637.0978535059" y="6656437.569128614" linkRefId="418319612_0" name="КАМЫШОВАЯ УЛ." isBlocking="false"/>
		<stopFacility id="1590.link:427930952_0" x="687723.3638781528" y="6649160.283648691" linkRefId="427930952_0" name="КОВЕНСКИЙ ПЕР." isBlocking="false"/>
		<stopFacility id="1597.link:153341590_0" x="682365.3444709196" y="6641974.114631394" linkRefId="153341590_0" name="КОМСОМОЛЬСКАЯ ПЛОЩАДЬ" isBlocking="false"/>
		<stopFacility id="1623.link:142147529_0" x="685876.9723835571" y="6641865.453141867" linkRefId="142147529_0" name="КУЗНЕЦОВСКАЯ УЛ." isBlocking="false"/>
		<stopFacility id="1625.link:441355165_0" x="687665.9671682079" y="6647939.151471569" linkRefId="441355165_0" name="КУЗНЕЧНЫЙ ПЕРЕУЛОК" isBlocking="false"/>
		<stopFacility id="1629.link:365264113_2" x="690369.4092922613" y="6637127.3574452065" linkRefId="365264113_2" name="КУПЧИНСКАЯ УЛ. ПО УЛ. О. ДУНДИЧА" isBlocking="false"/>
		<stopFacility id="1630.link:181395511_0" x="690059.4562959864" y="6637684.887393278" linkRefId="181395511_0" name="КУПЧИНСКАЯ УЛ. (ПО УЛ. Я. ГАШЕКА)" isBlocking="false"/>
		<stopFacility id="1631.link:157855070_1" x="690052.6994111481" y="6637849.650524211" linkRefId="157855070_1" name="КУПЧИНСКАЯ УЛ. УГ. УЛ. Я. ГАШЕКА" isBlocking="false"/>
		<stopFacility id="1634.link:117329146_1_r" x="687618.5936655146" y="6646242.741496178" linkRefId="117329146_1_r" name="КУРСКАЯ УЛ. 28" isBlocking="false"/>
		<stopFacility id="1648.link:31371305_1" x="694207.7017338249" y="6649949.365212259" linkRefId="31371305_1" name="ЛЕНСКАЯ УЛ." isBlocking="false"/>
		<stopFacility id="1656.link:143681957_0" x="686305.0323089181" y="6649643.028196532" linkRefId="143681957_0" name="ЛЕТНИЙ САД" isBlocking="false"/>
		<stopFacility id="1666.link:157925514_0" x="689724.7830451834" y="6637447.314126741" linkRefId="157925514_0" name="МАЛАЯ БАЛКАНСКАЯ УЛ. ПО УЛ. Я. ГАШЕКА" isBlocking="false"/>
		<stopFacility id="1667.link:314839768_0_r" x="689738.5386644804" y="6637238.731814718" linkRefId="314839768_0_r" name="МАЛАЯ БАЛКАНСКАЯ УЛ. УГ. УЛ. О. ДУНДИЧА" isBlocking="false"/>
		<stopFacility id="1669.link:148617407_2" x="685144.0466824572" y="6648921.913165801" linkRefId="148617407_2" name="СТ. М. &quot;АДМИРАЛТЕЙСКАЯ&quot;" isBlocking="false"/>
		<stopFacility id="1670.link:143519879_0" x="685112.1748567442" y="6649006.100533569" linkRefId="143519879_0" name="МАЛАЯ МОРСКАЯ УЛ." isBlocking="false"/>
		<stopFacility id="1672.link:35497072_0_r" x="680789.9657521982" y="6648874.947693472" linkRefId="35497072_0_r" name="МАЛЫЙ ПР. В.О.,УГ. НАЛИЧНОЙ УЛ." isBlocking="false"/>
		<stopFacility id="1674.link:161777264_1" x="685329.9715574903" y="6657321.374503402" linkRefId="161777264_1" name="МАНЧЕСТЕРСКАЯ УЛ." isBlocking="false"/>
		<stopFacility id="1691.link:299168659_0" x="687777.7835107506" y="6648296.462781727" linkRefId="299168659_0" name="МОСКОВСКИЙ ВОКЗАЛ" isBlocking="false"/>
		<stopFacility id="1693.link:308301797_1" x="685734.309854514" y="6643252.4837813545" linkRefId="308301797_1" name="МОСКОВСКИЙ ПР.,129" isBlocking="false"/>
		<stopFacility id="1694.link:366320482_0" x="685418.3377544015" y="6647728.10054706" linkRefId="366320482_0" name="МОСКОВСКИЙ ПР.,4" isBlocking="false"/>
		<stopFacility id="1695.link:143558785_1" x="685401.9101251586" y="6647724.041441675" linkRefId="143558785_1" name="МОСКОВСКИЙ ПР.,5" isBlocking="false"/>
		<stopFacility id="1704.link:346589649_2" x="684938.4139106034" y="6646018.835667923" linkRefId="346589649_2" name="НАБ. ОБВОДНОГО КАНАЛА" isBlocking="false"/>
		<stopFacility id="17051.link:333879408_0" x="687031.8293693576" y="6648138.710189544" linkRefId="333879408_0" name="ВЛАДИМИРСКАЯ ПЛОЩАДЬ" isBlocking="false"/>
		<stopFacility id="17051.link:333879409_0" x="687031.8293693576" y="6648138.710189544" linkRefId="333879409_0" name="ВЛАДИМИРСКАЯ ПЛОЩАДЬ" isBlocking="false"/>
		<stopFacility id="1706.link:397404691_1" x="683507.3874419301" y="6645793.5063110655" linkRefId="397404691_1" name="НАБ. ОБВОДНОГО КАНАЛА,138" isBlocking="false"/>
		<stopFacility id="1709.link:376754063_0" x="685436.8327389694" y="6647272.328478892" linkRefId="376754063_0" name="НАБ. РЕКИ ФОНТАНКИ" isBlocking="false"/>
		<stopFacility id="1713.link:31380409_0" x="683100.8037059077" y="6645382.045116711" linkRefId="31380409_0" name="НАРВСКИЙ ПР." isBlocking="false"/>
		<stopFacility id="17172.link:583731019_0" x="685499.6039742562" y="6646703.208433332" linkRefId="583731019_0" name="СТАНЦИЯ МЕТРО &quot;ТЕХНОЛОГИЧЕСКИЙ ИНСТИТУТ&quot;" isBlocking="false"/>
		<stopFacility id="1721.link:200394523_0" x="686952.61103168" y="6652586.282814121" linkRefId="200394523_0" name="НЕЙШЛОТСКИЙ ПЕР." isBlocking="false"/>
		<stopFacility id="17235.link:347641710_0" x="682392.3957672899" y="6639459.533193763" linkRefId="347641710_0" name="УЛ. ЗИНЫ ПОРТНОВОЙ, УГ. ЛЕНИНСКОГО ПРОСПЕКТА" isBlocking="false"/>
		<stopFacility id="17258.link:200468550_0_r" x="689837.501100569" y="6661109.4307742845" linkRefId="200468550_0_r" name="УЛ. БРЯНЦЕВА" isBlocking="false"/>
		<stopFacility id="1741.link:31397172_0" x="682907.1508205873" y="6658589.859903068" linkRefId="31397172_0" name="ВЕРБНАЯ УЛ." isBlocking="false"/>
		<stopFacility id="1743.link:229810172_2" x="682848.4535716119" y="6643324.4511437435" linkRefId="229810172_2" name="ОГОРОДНЫЙ ПЕР." isBlocking="false"/>
		<stopFacility id="17847.link:528050255_0" x="685116.730322337" y="6651724.77740194" linkRefId="528050255_0" name="Б. МОНЕТНАЯ УЛ." isBlocking="false"/>
		<stopFacility id="17848.link:192532521_0" x="685528.0534376946" y="6650957.520251046" linkRefId="192532521_0" name="ТРОИЦКАЯ ПЛ." isBlocking="false"/>
		<stopFacility id="17915.link:172138793_0" x="685578.1727091905" y="6650927.688405563" linkRefId="172138793_0" name="ТРОИЦКАЯ ПЛ." isBlocking="false"/>
		<stopFacility id="17915.link:309915516_0" x="685578.1727091905" y="6650927.688405563" linkRefId="309915516_0" name="ТРОИЦКАЯ ПЛ." isBlocking="false"/>
		<stopFacility id="1797.link:142997518_0" x="684951.1549248244" y="6659573.822222685" linkRefId="142997518_0" name="ПОКЛОННАЯ ГОРА" isBlocking="false"/>
		<stopFacility id="18029.link:347641710_0" x="682374.9415883244" y="6639936.311980411" linkRefId="347641710_0" name="УЛ. ЗИНЫ ПОРТНОВОЙ,1" isBlocking="false"/>
		<stopFacility id="18029.link:347641710_1" x="682374.9415883244" y="6639936.311980411" linkRefId="347641710_1" name="УЛ. ЗИНЫ ПОРТНОВОЙ,1" isBlocking="false"/>
		<stopFacility id="1806.link:468646555_0" x="688449.6863074123" y="6648235.393655615" linkRefId="468646555_0" name="ПОЛТАВСКАЯ УЛ." isBlocking="false"/>
		<stopFacility id="18077.link:303807439_0" x="683872.72932157" y="6650592.482531189" linkRefId="303807439_0" name="СТ. МЕТРО &quot;СПОРТИВНАЯ&quot;" isBlocking="false"/>
		<stopFacility id="18077.link:439763406_0" x="683872.72932157" y="6650592.482531189" linkRefId="439763406_0" name="СТ. МЕТРО &quot;СПОРТИВНАЯ&quot;" isBlocking="false"/>
		<stopFacility id="18077.link:4457242_0" x="683872.72932157" y="6650592.482531189" linkRefId="4457242_0" name="СТ. МЕТРО &quot;СПОРТИВНАЯ&quot;" isBlocking="false"/>
		<stopFacility id="18080.link:236764587_0" x="684125.3814319976" y="6650653.597872175" linkRefId="236764587_0" name="ПЕР. ТАЛАЛИХИНА" isBlocking="false"/>
		<stopFacility id="18080.link:31396756_0" x="684125.3814319976" y="6650653.597872175" linkRefId="31396756_0" name="ПЕР. ТАЛАЛИХИНА" isBlocking="false"/>
		<stopFacility id="18083.link:172948672_0" x="684176.5740438893" y="6651036.096515069" linkRefId="172948672_0" name="ПИОНЕРСКАЯ УЛ." isBlocking="false"/>
		<stopFacility id="18098.link:370619129_0" x="694028.282619275" y="6648188.150306919" linkRefId="370619129_0" name="РОССИЙСКИЙ ПР., УГОЛ УЛ. ЛАТЫШСКИХ СТРЕЛКОВ" isBlocking="false"/>
		<stopFacility id="18106.link:172948680_0" x="684163.4774183625" y="6651273.941010347" linkRefId="172948680_0" name="ВВЕДЕНСКАЯ УЛ." isBlocking="false"/>
		<stopFacility id="18108.link:142147532_1" x="685967.6393799798" y="6640747.335118463" linkRefId="142147532_1" name="ПЛ. БРАТЬЕВ СТРУГАЦКИХ" isBlocking="false"/>
		<stopFacility id="18109.link:174930516_0" x="683880.4020761596" y="6650890.036965233" linkRefId="174930516_0" name="УЛ. КРАСНОГО КУРСАНТА" isBlocking="false"/>
		<stopFacility id="18110.link:368423579_0" x="694073.7913476208" y="6648284.594580575" linkRefId="368423579_0" name="РОССИЙСКИЙ ПР., УГОЛ ТОВАРИЩЕСКОГО ПР." isBlocking="false"/>
		<stopFacility id="18114.link:338653847_0" x="694410.0640821287" y="6647877.514645619" linkRefId="338653847_0" name="ТОВАРИЩЕСКИЙ ПР." isBlocking="false"/>
		<stopFacility id="1828.link:347257558_0" x="680008.0619685992" y="6637214.355701477" linkRefId="347257558_0" name="УНИВЕРСАМ &quot;ТАЛЛИНСКИЙ&quot;" isBlocking="false"/>
		<stopFacility id="1846.link:31371305_0" x="694241.7387449724" y="6650297.363913238" linkRefId="31371305_0" name="ПР. КОСЫГИНА,УГ. ИНДУСТРИАЛЬНОГО ПР." isBlocking="false"/>
		<stopFacility id="18506.link:144880915_3" x="695425.6077649519" y="6646402.507624066" linkRefId="144880915_3" name="РЕКА ОККЕРВИЛЬ (ВЫСАДКИ И ПОСАДКИ НЕТ)" isBlocking="false"/>
		<stopFacility id="18507.link:265195031_0" x="695158.2826212747" y="6646387.274653141" linkRefId="265195031_0" name="ТОВАРИЩЕСКИЙ ПР." isBlocking="false"/>
		<stopFacility id="18546.link:437528022_1_r" x="683489.5984078915" y="6654354.773184376" linkRefId="437528022_1_r" name="УЛ. АКАДЕМИКА ШИМАНСКОГО" isBlocking="false"/>
		<stopFacility id="18547.link:411606692_0" x="682898.9600480335" y="6654225.368531605" linkRefId="411606692_0" name="УЛ. ОСКАЛЕНКО" isBlocking="false"/>
		<stopFacility id="18548.link:411606692_1" x="682452.1667767256" y="6654135.524329565" linkRefId="411606692_1" name="СЕРЕБРЯКОВ ПЕР." isBlocking="false"/>
		<stopFacility id="18549.link:181364117_1" x="682129.8668787383" y="6654119.81499827" linkRefId="181364117_1" name="УЛ. ПОКРЫШЕВА" isBlocking="false"/>
		<stopFacility id="18573.link:362796519_1" x="684699.2242229301" y="6649730.491556813" linkRefId="362796519_1" name="БИРЖЕВАЯ ПЛ." isBlocking="false"/>
		<stopFacility id="18574.link:31366755_0_r" x="684030.2504740565" y="6654508.552216496" linkRefId="31366755_0_r" name="СТ.МЕТРО &quot;ЧЁРНАЯ РЕЧКА&quot;" isBlocking="false"/>
		<stopFacility id="18575.link:31366365_1" x="684568.6094194365" y="6649821.012765112" linkRefId="31366365_1" name="БИРЖЕВАЯ ПЛ." isBlocking="false"/>
		<stopFacility id="18576.link:31375484_1" x="684465.8074752933" y="6650388.920452428" linkRefId="31375484_1" name="ПР. ДОБРОЛЮБОВА" isBlocking="false"/>
		<stopFacility id="18590.link:411606692_1_r" x="682447.929525032" y="6654118.359208782" linkRefId="411606692_1_r" name="СЕРЕБРЯКОВ ПЕР." isBlocking="false"/>
		<stopFacility id="18592.link:437528022_1" x="683401.5222540236" y="6654325.292346367" linkRefId="437528022_1" name="УЛ. АКАДЕМИКА ШИМАНСКОГО" isBlocking="false"/>
		<stopFacility id="18594.link:31370028_0_r" x="684083.7614186576" y="6650482.856672518" linkRefId="31370028_0_r" name="ПЕР. ТАЛАЛИХИНА" isBlocking="false"/>
		<stopFacility id="18595.link:23546991_0" x="684409.5103036922" y="6650307.241175372" linkRefId="23546991_0" name="МЫТНИНСКАЯ НАБ." isBlocking="false"/>
		<stopFacility id="1875.link:348010184_0" x="678983.3317846173" y="6637053.018914794" linkRefId="348010184_0" name="ПР. МАРШАЛА ЖУКОВА,УГ. ПР. ВЕТЕРАНОВ" isBlocking="false"/>
		<stopFacility id="1891.link:194972653_1" x="688963.1282720353" y="6657886.405502913" linkRefId="194972653_1" name="ПР. НАУКИ,12" isBlocking="false"/>
		<stopFacility id="1898.link:31400668_1" x="694592.5677072048" y="6641252.405337455" linkRefId="31400668_1" name="ОБУХОВСКИЙ ЗАВОД" isBlocking="false"/>
		<stopFacility id="1899.link:525451025_0" x="694743.128209172" y="6641043.980154885" linkRefId="525451025_0" name="МУЗЕЙ ИСТОРИИ ОБУХОВСКОГО ЗАВОДА" isBlocking="false"/>
		<stopFacility id="1901.link:144655541_0" x="693641.0663799851" y="6650000.83669003" linkRefId="144655541_0" name="УЛ. ПЕРЕДОВИКОВ" isBlocking="false"/>
		<stopFacility id="1905.link:144529123_0" x="690030.2869658258" y="6660500.4156988645" linkRefId="144529123_0" name="ПР. ПРОСВЕЩЕНИЯ,УГ. УЛ. УШИНСКОГО" isBlocking="false"/>
		<stopFacility id="19096.link:31387542_0_r" x="683801.6839409757" y="6651654.03530739" linkRefId="31387542_0_r" name="СТАНЦИЯ МЕТРО &quot;ЧКАЛОВСКАЯ&quot;" isBlocking="false"/>
		<stopFacility id="19109.link:176380126_0_r" x="684178.67551336" y="6651330.363672771" linkRefId="176380126_0_r" name="БОЛЬШОЙ ПР. П.С" isBlocking="false"/>
		<stopFacility id="19112.link:342907691_0" x="684581.6717382233" y="6651084.328359359" linkRefId="342907691_0" name="ВВЕДЕНСКАЯ УЛ." isBlocking="false"/>
		<stopFacility id="19113.link:31387542_0" x="683822.5743422509" y="6651671.473716054" linkRefId="31387542_0" name="СТАНЦИЯ МЕТРО &quot;ЧКАЛОВСКАЯ&quot;" isBlocking="false"/>
		<stopFacility id="1916.link:329923292_0" x="683208.882657241" y="6644192.601918494" linkRefId="329923292_0" name="АДМИНИСТРАЦИЯ КИРОВСКОГО РАЙОНА" isBlocking="false"/>
		<stopFacility id="19161.link:197509122_0" x="691612.0503922298" y="6641425.285827326" linkRefId="197509122_0" name="ж.д. ст. Московская-Сортировочная (посадки и высадки нет)" isBlocking="false"/>
		<stopFacility id="19170.link:123369651_0" x="689944.8832423572" y="6640660.026823486" linkRefId="123369651_0" name="ПР. СЛАВЫ" isBlocking="false"/>
		<stopFacility id="19171.link:159265370_0" x="687622.1001647564" y="6644715.25277256" linkRefId="159265370_0" name="КАСИМОВСКАЯ УЛ." isBlocking="false"/>
		<stopFacility id="19172.link:162566018_1" x="687530.7980867315" y="6645176.375041357" linkRefId="162566018_1" name="ЦЕРКОВЬ СВЯТОГО ИОВА" isBlocking="false"/>
		<stopFacility id="19198.link:242581_0" x="684063.6406294282" y="6655689.999690236" linkRefId="242581_0" name="АЭРОДРОМНАЯ УЛ." isBlocking="false"/>
		<stopFacility id="19208.link:326359988_0_r" x="691697.8174267791" y="6641548.092995352" linkRefId="326359988_0_r" name="Ж.-Д. СТ. СОРТИРОВОЧНАЯ" isBlocking="false"/>
		<stopFacility id="19213.link:183855363_0" x="683940.825374195" y="6656000.119657338" linkRefId="183855363_0" name="БОГАТЫРСКИЙ ПР." isBlocking="false"/>
		<stopFacility id="1925.link:143881926_0" x="691021.5007348729" y="6648558.995534894" linkRefId="143881926_0" name="ПР. ШАУМЯНА, ТЕАТР &quot; БУФФ&quot;" isBlocking="false"/>
		<stopFacility id="1939.link:140956752_0" x="690614.3745101152" y="6640956.464052059" linkRefId="140956752_0" name="ПРАЖСКАЯ УЛ." isBlocking="false"/>
		<stopFacility id="1944.link:239353_1_r" x="696474.5046670042" y="6638064.975441658" linkRefId="239353_1_r" name="ПРИБРЕЖНАЯ УЛ. УНИВЕРСАМ" isBlocking="false"/>
		<stopFacility id="1947.link:512054376_0" x="694942.5281202084" y="6639849.608554722" linkRefId="512054376_0" name="ПРОГОННАЯ УЛ." isBlocking="false"/>
		<stopFacility id="1960.link:512052370_0" x="694696.5118573289" y="6640692.313771438" linkRefId="512052370_0" name="РАБФАКОВСКАЯ УЛ." isBlocking="false"/>
		<stopFacility id="1968.link:159265378_1" x="687716.0812162054" y="6645667.477081482" linkRefId="159265378_1" name="РАССТАННЫЙ ПЕР." isBlocking="false"/>
		<stopFacility id="19810.link:101218270_0" x="682767.678585869" y="6649959.906974629" linkRefId="101218270_0" name="8-9-Я ЛИНИИ В.О., УГ. МАЛОГО ПР. В.О." isBlocking="false"/>
		<stopFacility id="19814.link:358225234_0" x="683238.4762619967" y="6650224.741140103" linkRefId="358225234_0" name="НАБ. МАКАРОВА" isBlocking="false"/>
		<stopFacility id="1983.link:321360991_0" x="695121.1368839138" y="6639460.47308807" linkRefId="321360991_0" name="РЫБАЦКИЙ ПРОСП." isBlocking="false"/>
		<stopFacility id="19865.link:83689328_0" x="682702.7594841853" y="6657806.664892563" linkRefId="83689328_0" name="ПАРАШЮТНАЯ УЛ." isBlocking="false"/>
		<stopFacility id="19949.link:194972654_0" x="682650.3697950549" y="6657315.921414415" linkRefId="194972654_0" name="ПР. СИЗОВА" isBlocking="false"/>
		<stopFacility id="2010.link:509508052_0" x="689775.0039777814" y="6658590.404167738" linkRefId="509508052_0" name="СЕВЕРНЫЙ ПР." isBlocking="false"/>
		<stopFacility id="20102.link:121643106_0" x="687006.9663498194" y="6648669.801371117" linkRefId="121643106_0" name="ЛИТЕЙНЫЙ ПР." isBlocking="false"/>
		<stopFacility id="20110.link:31365359_0" x="690479.7055229103" y="6660249.089113483" linkRefId="31365359_0" name="СТ. МЕТРО &quot;ГРАЖДАНСКИЙ ПР.&quot;" isBlocking="false"/>
		<stopFacility id="20111.link:31365359_2" x="690238.3579332824" y="6659689.592678751" linkRefId="31365359_2" name="ГРАЖДАНСКИЙ ПР., 110" isBlocking="false"/>
		<stopFacility id="20112.link:361354572_0" x="690277.6273406465" y="6659718.287170245" linkRefId="361354572_0" name="ГРАЖДАНСКИЙ ПР., 110" isBlocking="false"/>
		<stopFacility id="20121.link:361354583_0" x="690059.3115040937" y="6659288.745296333" linkRefId="361354583_0" name="ПР. ЛУНАЧАРСКОГО" isBlocking="false"/>
		<stopFacility id="20122.link:131611143_0" x="690082.7565767865" y="6659263.96109161" linkRefId="131611143_0" name="ПР. ЛУНАЧАРСКОГО" isBlocking="false"/>
		<stopFacility id="20356.link:142893694_0" x="694359.6649862918" y="6646894.928969822" linkRefId="142893694_0" name="УЛ.ПОДВОЙСКОГО" isBlocking="false"/>
		<stopFacility id="20517.link:415624712_4" x="684874.7031661902" y="6648720.013083737" linkRefId="415624712_4" name="ИСААКИЕВСКИЙ СОБОР" isBlocking="false"/>
		<stopFacility id="2056.link:38022559_1" x="682508.942236742" y="6641234.609296072" linkRefId="38022559_1" name="СТ. МЕТРО &quot;АВТОВО&quot;" isBlocking="false"/>
		<stopFacility id="2057.link:194972653_1_r" x="689351.5954052045" y="6657763.222188132" linkRefId="194972653_1_r" name="СТ. МЕТРО &quot;АКАДЕМИЧЕСКАЯ&quot;" isBlocking="false"/>
		<stopFacility id="20575.link:190473740_1_r" x="687035.6500026076" y="6652278.686733268" linkRefId="190473740_1_r" name="ВЫБОРГСКАЯ УЛ." isBlocking="false"/>
		<stopFacility id="2058.link:509508056_0" x="689419.8174663418" y="6657775.767141079" linkRefId="509508056_0" name="СТ. МЕТРО &quot;АКАДЕМИЧЕСКАЯ&quot;" isBlocking="false"/>
		<stopFacility id="2059.link:302455255_0_r" x="683238.863766249" y="6649690.214199796" linkRefId="302455255_0_r" name="СТ. МЕТРО &quot;ВАСИЛЕОСТРОВСКАЯ&quot;" isBlocking="false"/>
		<stopFacility id="20618.link:333582205_0" x="682950.5746783785" y="6659042.796523153" linkRefId="333582205_0" name="УЛ.ЩЕРБАКОВА" isBlocking="false"/>
		<stopFacility id="2062.link:192532521_0" x="685426.6525620354" y="6651143.964747145" linkRefId="192532521_0" name="СТ. МЕТРО &quot;ГОРЬКОВСКАЯ&quot;" isBlocking="false"/>
		<stopFacility id="2063.link:159746240_0" x="686208.0884800346" y="6648793.553262915" linkRefId="159746240_0" name="СТ. МЕТРО &quot;ГОСТИНЫЙ ДВОР&quot;" isBlocking="false"/>
		<stopFacility id="2064.link:176032414_0" x="690469.3504398903" y="6660319.7328434605" linkRefId="176032414_0" name="СТ. МЕТРО &quot;ГРАЖДАНСКИЙ ПР.&quot;" isBlocking="false"/>
		<stopFacility id="2065.link:542225501_0" x="691463.9231519484" y="6644865.197883003" linkRefId="542225501_0" name="СТ. МЕТРО &quot;ЕЛИЗАРОВСКАЯ&quot;" isBlocking="false"/>
		<stopFacility id="2067.link:31370823_0" x="682483.6697668952" y="6642503.317613845" linkRefId="31370823_0" name="СТ. МЕТРО &quot;КИРОВСКИЙ ЗАВОД&quot;" isBlocking="false"/>
		<stopFacility id="2072.link:243111_0_r" x="689463.5770356618" y="6637230.8164658435" linkRefId="243111_0_r" name="СТ. МЕТРО &quot;КУПЧИНО&quot;" isBlocking="false"/>
		<stopFacility id="2073.link:143887378_1" x="691884.2225003382" y="6648958.032152555" linkRefId="143887378_1" name="СТ. МЕТРО &quot;ЛАДОЖСКАЯ&quot;" isBlocking="false"/>
		<stopFacility id="20776.link:566566380_0" x="688369.7354447591" y="6662074.411288825" linkRefId="566566380_0" name="ПР. КУЛЬТУРЫ" isBlocking="false"/>
		<stopFacility id="2079.link:436825143_0" x="692691.2519407243" y="6642765.954916513" linkRefId="436825143_0" name="СТ. МЕТРО &quot;ЛОМОНОСОВСКАЯ&quot;" isBlocking="false"/>
		<stopFacility id="20795.link:198177497_0" x="688872.0394262274" y="6661908.287415616" linkRefId="198177497_0" name="СУЗДАЛЬСКИЙ ПР., УГ. УЛ. ДЕМЬЯНА БЕДНОГО" isBlocking="false"/>
		<stopFacility id="20796.link:198269749_0" x="688327.9708189756" y="6662013.032012043" linkRefId="198269749_0" name="ПР. КУЛЬТУРЫ&lt;" isBlocking="false"/>
		<stopFacility id="20797.link:198177505_0_r" x="688865.0537497713" y="6661765.126550673" linkRefId="198177505_0_r" name="СУЗДАЛЬСКИЙ ПР., УГ. УЛ. ДЕМЬЯНА БЕДНОГО" isBlocking="false"/>
		<stopFacility id="2082.link:576484862_0" x="686004.7758320842" y="6648859.950589129" linkRefId="576484862_0" name="СТ. МЕТРО &quot;НЕВСКИЙ ПР.&quot;" isBlocking="false"/>
		<stopFacility id="2083.link:192265916_0" x="690754.4536435474" y="6648442.002846782" linkRefId="192265916_0" name="СТ. МЕТРО &quot;НОВОЧЕРКАССКАЯ&quot;" isBlocking="false"/>
		<stopFacility id="2085.link:348102925_0" x="685093.2401935878" y="6660102.600710523" linkRefId="348102925_0" name="СТ. МЕТРО &quot;ОЗЕРКИ&quot;" isBlocking="false"/>
		<stopFacility id="2086.link:142147527_0" x="685933.8094245606" y="6641206.79678421" linkRefId="142147527_0" name="СТАНЦИЯ МЕТРО &quot;ПАРК ПОБЕДЫ&quot;" isBlocking="false"/>
		<stopFacility id="20865.link:347260846_0" x="681839.8358698575" y="6638351.414181046" linkRefId="347260846_0" name="СТ. МЕТРО &quot;ПРОСПЕКТ ВЕТЕРАНОВ&quot;" isBlocking="false"/>
		<stopFacility id="2087.link:156449625_1" x="684811.2199661811" y="6652311.966660241" linkRefId="156449625_1" name="СТ. МЕТРО &quot;ПЕТРОГРАДСКАЯ&quot;" isBlocking="false"/>
		<stopFacility id="20878.link:94505950_0" x="680435.6515309548" y="6649890.301419595" linkRefId="94505950_0" name="НОВОСМОЛЕНСКАЯ НАБ." isBlocking="false"/>
		<stopFacility id="2088.link:4459200_0" x="683981.7422772977" y="6656285.059989122" linkRefId="4459200_0" name="СТ. МЕТРО &quot;ПИОНЕРСКАЯ&quot;" isBlocking="false"/>
		<stopFacility id="2089.link:301738020_0" x="689119.3012036866" y="6647777.616478926" linkRefId="301738020_0" name="СТ. МЕТРО &quot;ПЛОЩАДЬ АЛ. НЕВСКОГО&quot;" isBlocking="false"/>
		<stopFacility id="2089.link:327368250_0" x="689119.3012036866" y="6647777.616478926" linkRefId="327368250_0" name="СТ. МЕТРО &quot;ПЛОЩАДЬ АЛ. НЕВСКОГО&quot;" isBlocking="false"/>
		<stopFacility id="2090.link:277213980_0" x="687591.2839170207" y="6648555.399517828" linkRefId="277213980_0" name="СТ. МЕТРО &quot;ПЛОЩАДЬ ВОССТАНИЯ&quot;" isBlocking="false"/>
		<stopFacility id="2092.link:31396539_0" x="693994.2714425283" y="6647503.326252283" linkRefId="31396539_0" name="СТ. МЕТРО &quot;ПР. БОЛЬШЕВИКОВ&quot;" isBlocking="false"/>
		<stopFacility id="2093.link:347258828_0" x="681833.0268836366" y="6638364.354073517" linkRefId="347258828_0" name="СТ. МЕТРО &quot;ПР. ВЕТЕРАНОВ&quot;" isBlocking="false"/>
		<stopFacility id="2096.link:321630665_0" x="680486.8469961118" y="6650118.233968827" linkRefId="321630665_0" name="СТ. МЕТРО &quot;ПРИМОРСКАЯ&quot;" isBlocking="false"/>
		<stopFacility id="2097.link:174738164_0" x="694329.9451341399" y="6641401.513438432" linkRefId="174738164_0" name="СТ. МЕТРО &quot;ПРОЛЕТАРСКАЯ&quot;" isBlocking="false"/>
		<stopFacility id="2098.link:410372607_0" x="686077.2152626695" y="6647295.247749317" linkRefId="410372607_0" name="ВИТЕБСКИЙ ВОКЗАЛ, СТ. МЕТРО &quot;ПУШКИНСКАЯ&quot;" isBlocking="false"/>
		<stopFacility id="20984.link:538610179_0" x="691932.53876119" y="6644090.887529987" linkRefId="538610179_0" name="УЛ. КРУПСКОЙ" isBlocking="false"/>
		<stopFacility id="2099.link:38144333_1" x="696287.3420008852" y="6637846.870392844" linkRefId="38144333_1" name="СТ. МЕТРО &quot;РЫБАЦКОЕ&quot;" isBlocking="false"/>
		<stopFacility id="2100.link:245456247_0_r" x="685575.1118520908" y="6648064.159881591" linkRefId="245456247_0_r" name="СТ. МЕТРО &quot;СЕННАЯ ПЛОЩАДЬ&quot;" isBlocking="false"/>
		<stopFacility id="2101.link:318767342_0_r" x="685427.8490760308" y="6646732.294408344" linkRefId="318767342_0_r" name="СТАНЦИЯ МЕТРО &quot;ТЕХНОЛОГИЧЕСКИЙ ИНСТИТУТ&quot;" isBlocking="false"/>
		<stopFacility id="2102.link:181353491_0" x="694729.3057303148" y="6646200.538399898" linkRefId="181353491_0" name="СТ. МЕТРО &quot;УЛ.ДЫБЕНКО&quot;" isBlocking="false"/>
		<stopFacility id="2103.link:487064586_0" x="685605.45174399" y="6645386.277216385" linkRefId="487064586_0" name="СТ. МЕТРО &quot;ФРУНЗЕНСКАЯ&quot;" isBlocking="false"/>
		<stopFacility id="2107.link:309153680_0" x="685812.978348719" y="6642736.147777591" linkRefId="309153680_0" name="СТАНЦИЯ МЕТРО &quot;ЭЛЕКТРОСИЛА&quot;" isBlocking="false"/>
		<stopFacility id="21079.link:265195030_0" x="695234.2586331991" y="6646394.855263651" linkRefId="265195030_0" name="ТОВАРИЩЕСКИЙ ПР." isBlocking="false"/>
		<stopFacility id="2114.link:31399748_0" x="683150.4709692545" y="6645582.948405093" linkRefId="31399748_0" name="СТАРО-ПЕТЕРГОФСКИЙ ПР.,27" isBlocking="false"/>
		<stopFacility id="2118.link:143681906_0" x="686097.1493463718" y="6650074.196353229" linkRefId="143681906_0" name="СУВОРОВСКАЯ ПЛОЩАДЬ" isBlocking="false"/>
		<stopFacility id="2119.link:160338253_1" x="688160.3509853245" y="6648419.226017994" linkRefId="160338253_1" name="СУВОРОВСКИЙ ПР." isBlocking="false"/>
		<stopFacility id="2134.link:31370651_0_r" x="687750.7066613929" y="6657638.422577659" linkRefId="31370651_0_r" name="ТИХОРЕЦКИЙ ПР. Д.7" isBlocking="false"/>
		<stopFacility id="2135.link:244013_0" x="687790.3201870827" y="6658024.769448561" linkRefId="244013_0" name="ТИХОРЕЦКИЙ ПР.,УГ. ПР. НАУКИ" isBlocking="false"/>
		<stopFacility id="21428.link:175422877_0_r" x="687838.7925164108" y="6657100.505156179" linkRefId="175422877_0_r" name="СТ. МЕТРО &quot;ПОЛИТЕХНИЧЕСКАЯ&quot; " isBlocking="false"/>
		<stopFacility id="21441.link:175422877_0" x="687845.23319177" y="6657185.619805725" linkRefId="175422877_0" name="СТАНЦИЯ М. &quot;ПОЛИТЕХНИЧЕСКАЯ&quot;" isBlocking="false"/>
		<stopFacility id="21443.link:31370651_0" x="687784.2662914989" y="6657626.523113038" linkRefId="31370651_0" name="ТИХОРЕЦКИЙ ПР., 7" isBlocking="false"/>
		<stopFacility id="2151.link:31402297_0" x="684884.4431991226" y="6646626.5501967715" linkRefId="31402297_0" name="ТРОИЦКИЙ ПР." isBlocking="false"/>
		<stopFacility id="21516.link:28208222_0" x="683079.7455647851" y="6659471.55350705" linkRefId="28208222_0" name="РЕПИЩЕВА УЛ." isBlocking="false"/>
		<stopFacility id="2156.link:85639211_0" x="684573.7866402772" y="6656201.999398212" linkRefId="85639211_0" name="УДЕЛЬНЫЙ ПАРК" isBlocking="false"/>
		<stopFacility id="2162.link:541754761_0" x="684319.594655146" y="6653331.062989488" linkRefId="541754761_0" name="УЛ. АКАДЕМИКА ПАВЛОВА" isBlocking="false"/>
		<stopFacility id="2179.link:200468550_1" x="689899.373669678" y="6661070.78720578" linkRefId="200468550_1" name="УЛ. БРЯНЦЕВА" isBlocking="false"/>
		<stopFacility id="2190.link:223470734_0" x="682655.03423006" y="6642885.001487286" linkRefId="223470734_0" name="УЛ. ВОЗРОЖДЕНИЯ" isBlocking="false"/>
		<stopFacility id="2196.link:142147531_0" x="685999.2949276296" y="6640297.6927505" linkRefId="142147531_0" name="УЛ. ГАСТЕЛЛО" isBlocking="false"/>
		<stopFacility id="2197.link:347257559_2" x="679545.183974099" y="6637176.311436123" linkRefId="347257559_2" name="УЛ. ГЕНЕРАЛА СИМОНЯКА" isBlocking="false"/>
		<stopFacility id="22023.link:8145664_0" x="689607.626606729" y="6641180.252373007" linkRefId="8145664_0" name="МУЗЫКАЛЬНАЯ ШКОЛА" isBlocking="false"/>
		<stopFacility id="22024.link:346759345_0" x="689621.8267362695" y="6641220.694598163" linkRefId="346759345_0" name="МУЗЫКАЛЬНАЯ ШКОЛА" isBlocking="false"/>
		<stopFacility id="22025.link:417333934_0" x="689387.6804140359" y="6641561.470580496" linkRefId="417333934_0" name="УЛ. ТУРКУ" isBlocking="false"/>
		<stopFacility id="22026.link:346759345_3" x="689406.5721695832" y="6641592.446097741" linkRefId="346759345_3" name="УЛ. ТУРКУ" isBlocking="false"/>
		<stopFacility id="22026.link:542261372_2" x="689406.5721695832" y="6641592.446097741" linkRefId="542261372_2" name="УЛ. ТУРКУ" isBlocking="false"/>
		<stopFacility id="22129.link:137007065_0" x="685487.2724511841" y="6646692.215338067" linkRefId="137007065_0" name="СТАНЦИЯ МЕТРО &quot;ТЕХНОЛОГИЧЕСКИЙ ИНСТИТУТ&quot;" isBlocking="false"/>
		<stopFacility id="2213.link:538610178_1" x="692013.0724208097" y="6643752.110911632" linkRefId="538610178_1" name="УЛ. ДУДКО" isBlocking="false"/>
		<stopFacility id="22155.link:374288778_4_r" x="682561.2293935777" y="6649257.092780965" linkRefId="374288778_4_r" name="14-15 ЛИНИИ В.О." isBlocking="false"/>
		<stopFacility id="22165.link:214222924_0" x="680743.6298712934" y="6651019.694382587" linkRefId="214222924_0" name="А.С. &quot;НАЛИЧНАЯ УЛ.&quot;" isBlocking="false"/>
		<stopFacility id="22165.link:223312685_0" x="680743.6298712934" y="6651019.694382587" linkRefId="223312685_0" name="А.С. &quot;НАЛИЧНАЯ УЛ.&quot;" isBlocking="false"/>
		<stopFacility id="2225.link:176264663_1" x="682427.446795285" y="6641829.039701729" linkRefId="176264663_1" name="УЛ. ЗЕНИТЧИКОВ" isBlocking="false"/>
		<stopFacility id="22312.link:175093911_0" x="683130.3271722526" y="6644918.015577247" linkRefId="175093911_0" name="СТ.М. &quot;НАРВСКАЯ&quot;" isBlocking="false"/>
		<stopFacility id="2234.link:347257557_2" x="680571.8774029019" y="6637409.511727656" linkRefId="347257557_2" name="УЛ. КОЗЛОВА" isBlocking="false"/>
		<stopFacility id="2238.link:392854384_0" x="686716.2714728042" y="6651919.585803876" linkRefId="392854384_0" name="УЛ. КОМИССАРА СМИРНОВА" isBlocking="false"/>
		<stopFacility id="22420.link:246751703_1" x="684418.2412710959" y="6649453.188623174" linkRefId="246751703_1" name="УНИВЕРСИТЕТ" isBlocking="false"/>
		<stopFacility id="2246.link:321630661_0" x="680650.7668534566" y="6650784.251268797" linkRefId="321630661_0" name="УЛ. КОРАБЛЕСТРОИТЕЛЕЙ" isBlocking="false"/>
		<stopFacility id="22475.link:142994907_0" x="685140.8211634587" y="6658050.805598948" linkRefId="142994907_0" name="ЕЛЕЦКАЯ УЛ." isBlocking="false"/>
		<stopFacility id="22480.link:142994344_1_r" x="685155.8639503481" y="6657934.87481124" linkRefId="142994344_1_r" name="ЕНОТАЕВСКАЯ УЛ." isBlocking="false"/>
		<stopFacility id="22481.link:198177505_0" x="688798.6295525191" y="6661513.597614368" linkRefId="198177505_0" name="УЛ. ДЕМЬЯНА БЕДНОГО УГ. ТИМУРОВСКОЙ УЛ." isBlocking="false"/>
		<stopFacility id="22487.link:552378901_1" x="687595.5288155486" y="6637655.520606121" linkRefId="552378901_1" name="СТ.МЕТРО &quot;ЗВЕЗДНАЯ&quot;" isBlocking="false"/>
		<stopFacility id="2257.link:270559095_1" x="691904.6252429744" y="6644212.943449092" linkRefId="270559095_1" name="УЛ. КРУПСКОЙ" isBlocking="false"/>
		<stopFacility id="2263.link:347257566_1" x="681408.9003859919" y="6638021.1124350745" linkRefId="347257566_1" name="УЛ. ЛЕНИ ГОЛИКОВА" isBlocking="false"/>
		<stopFacility id="2265.link:61586221_0" x="686612.0361167754" y="6639618.677750776" linkRefId="61586221_0" name="УЛ. ЛЕНСОВЕТА" isBlocking="false"/>
		<stopFacility id="2266.link:552378901_9" x="687112.6049275515" y="6638109.922361146" linkRefId="552378901_9" name="УЛ. ЛЕНСОВЕТА,75" isBlocking="false"/>
		<stopFacility id="2267.link:552378901_6" x="687351.5662905258" y="6637879.687862627" linkRefId="552378901_6" name="УЛ. ЛЕНСОВЕТА,87" isBlocking="false"/>
		<stopFacility id="22714.link:327689185_0" x="682732.3350244088" y="6657775.559493615" linkRefId="327689185_0" name="ПАРАШЮТНАЯ УЛ." isBlocking="false"/>
		<stopFacility id="22739.link:139943448_0" x="685670.6369162557" y="6643985.316307868" linkRefId="139943448_0" name="СТ.М. &quot;МОСКОВСКИЕ ВОРОТА&quot;" isBlocking="false"/>
		<stopFacility id="2278.link:68678470_0_r" x="680497.778359957" y="6649378.114475185" linkRefId="68678470_0_r" name="УЛ. НАХИМОВА" isBlocking="false"/>
		<stopFacility id="22799.link:31381007_1" x="694057.8366605085" y="6648468.965300303" linkRefId="31381007_1" name="РОССИЙСКИЙ ПР., 14" isBlocking="false"/>
		<stopFacility id="2280.link:31400150_3_r" x="687738.744524921" y="6649399.577487294" linkRefId="31400150_3_r" name="УЛ. НЕКРАСОВА" isBlocking="false"/>
		<stopFacility id="2282.link:181395508_1" x="690844.3513419129" y="6637339.179685268" linkRefId="181395508_1" name="УЛ. О. ДУНДИЧА,УГ. БУДАПЕШТСКОЙ УЛ." isBlocking="false"/>
		<stopFacility id="22833.link:28327627_0" x="685638.5471357227" y="6650880.858728182" linkRefId="28327627_0" name="ТРОИЦКАЯ ПЛ." isBlocking="false"/>
		<stopFacility id="2284.link:200468563_2" x="688478.6881250705" y="6658028.142614941" linkRefId="200468563_2" name="УЛ. ОБРУЧЕВЫХ" isBlocking="false"/>
		<stopFacility id="2285.link:31386755_0_r" x="689065.2962395686" y="6661381.927998275" linkRefId="31386755_0_r" name="УЛ. ОЛЬГИ ФОРШ" isBlocking="false"/>
		<stopFacility id="2288.link:169342112_0" x="687012.9995569289" y="6638859.229353397" linkRefId="169342112_0" name="УЛ. ОРДЖОНИКИДЗЕ" isBlocking="false"/>
		<stopFacility id="22913.link:31396547_1" x="684390.2469200518" y="6656249.1450692015" linkRefId="31396547_1" name="УДЕЛЬНЫЙ ПАРК" isBlocking="false"/>
		<stopFacility id="2299.link:144664185_0" x="693541.6724256687" y="6649982.23818131" linkRefId="144664185_0" name="УЛ. ПЕРЕДОВИКОВ" isBlocking="false"/>
		<stopFacility id="22994.link:528480961_0" x="686422.0343768822" y="6647526.360653589" linkRefId="528480961_0" name="ЗВЕНИГОРОДСКАЯ УЛ." isBlocking="false"/>
		<stopFacility id="23035.link:pt_23035" x="678839.6987325083" y="6636337.828050169" linkRefId="pt_23035" name="А.С. &quot;ПР. МАРШАЛА ЖУКОВА&quot; (ПОСАДКИ/ВЫСАДКИ НЕТ)" isBlocking="false"/>
		<stopFacility id="2307.link:347353941_0" x="682418.8163952904" y="6639008.070437455" linkRefId="347353941_0" name="УЛ. ПОДВОДНИКА КУЗЬМИНА" isBlocking="false"/>
		<stopFacility id="23073.link:181498924_0" x="691422.4837410741" y="6645503.548943242" linkRefId="181498924_0" name="ПР. ОБУХОВСКОЙ ОБОРОНЫ" isBlocking="false"/>
		<stopFacility id="2312.link:157772121_0" x="684528.8348637341" y="6652861.176937529" linkRefId="157772121_0" name="УЛ. ПРОФЕССОРА ПОПОВА" isBlocking="false"/>
		<stopFacility id="2313.link:194972656_1" x="685055.8002832029" y="6658401.389787224" linkRefId="194972656_1" name="УЛ. РАШЕТОВА" isBlocking="false"/>
		<stopFacility id="2318.link:397404691_2" x="684125.9044439883" y="6645808.962602495" linkRefId="397404691_2" name="УЛ. РОЗЕНШТЕЙНА" isBlocking="false"/>
		<stopFacility id="2327.link:218345055_0" x="688395.6718845977" y="6643345.12728805" linkRefId="218345055_0" name="СТ. МЕТРО &quot;БУХАРЕСТСКАЯ&quot;" isBlocking="false"/>
		<stopFacility id="23273.link:28208222_0" x="683064.8204563605" y="6659478.731285941" linkRefId="28208222_0" name="А.С. &quot;РЕПИЩЕВА УЛ.&quot; (ПОСАДКИ - ВЫСАДКИ НЕТ)" isBlocking="false"/>
		<stopFacility id="23273.link:pt_23273" x="683064.8204563605" y="6659478.731285941" linkRefId="pt_23273" name="А.С. &quot;РЕПИЩЕВА УЛ.&quot; (ПОСАДКИ - ВЫСАДКИ НЕТ)" isBlocking="false"/>
		<stopFacility id="23313.link:31364941_1" x="685365.3952448866" y="6651228.570003142" linkRefId="31364941_1" name="Ст. метро &quot;Горьковская&quot;" isBlocking="false"/>
		<stopFacility id="23324.link:297835440_0" x="684950.683062593" y="6651231.864491612" linkRefId="297835440_0" name="СЫТНЫЙ РЫНОК" isBlocking="false"/>
		<stopFacility id="2350.link:347257557_3" x="680312.7709057704" y="6637262.83729977" linkRefId="347257557_3" name="УЛ. СОЛДАТА КОРЗУНА" isBlocking="false"/>
		<stopFacility id="2350.link:347257558_0" x="680312.7709057704" y="6637262.83729977" linkRefId="347257558_0" name="УЛ. СОЛДАТА КОРЗУНА" isBlocking="false"/>
		<stopFacility id="2371.link:229810172_0" x="682988.6005934756" y="6643671.484452088" linkRefId="229810172_0" name="УЛ. ТРЕФОЛЕВА" isBlocking="false"/>
		<stopFacility id="2375.link:181498939_0" x="696135.0800348101" y="6638551.991938592" linkRefId="181498939_0" name="УЛ. УСТИНОВА,УГ. ШЛИССЕЛЬБУРГСКОГО ПР." isBlocking="false"/>
		<stopFacility id="2376.link:75224295_1" x="681947.115865675" y="6656706.861937359" linkRefId="75224295_1" name="УЛ. УТОЧКИНА" isBlocking="false"/>
		<stopFacility id="23803.link:212804303_0" x="684010.0688650593" y="6655664.010078301" linkRefId="212804303_0" name="АЭРОДРОМНАЯ УЛ." isBlocking="false"/>
		<stopFacility id="2385.link:158898056_0" x="688760.7786775309" y="6642632.678967435" linkRefId="158898056_0" name="УНИВЕРСИТЕТ ПРОФСОЮЗОВ" isBlocking="false"/>
		<stopFacility id="23917.link:308301800_0" x="685701.0565488352" y="6644347.6053530155" linkRefId="308301800_0" name="ДЕТСКАЯ МУЗЫКАЛЬНАЯ ШКОЛА" isBlocking="false"/>
		<stopFacility id="23918.link:294236290_0" x="685672.1733033583" y="6644665.198208556" linkRefId="294236290_0" name="ТРАМПАРК №1" isBlocking="false"/>
		<stopFacility id="23921.link:538614453_1" x="685554.4656311978" y="6646012.768217927" linkRefId="538614453_1" name="НАБ. ОБВОДНОГО КАНАЛА" isBlocking="false"/>
		<stopFacility id="23922.link:137007068_0" x="685539.5499530488" y="6646219.620659542" linkRefId="137007068_0" name="МАЛОДЕТСКОСЕЛЬСКИЙ ПР." isBlocking="false"/>
		<stopFacility id="23923.link:194780175_0" x="685391.184475736" y="6661010.165069423" linkRefId="194780175_0" name="ПР.ЭНГЕЛЬСА, УГ. ПР. ЛУНАЧАРСКОГО" isBlocking="false"/>
		<stopFacility id="23924.link:143013959_0" x="685707.8254251587" y="6662054.47504881" linkRefId="143013959_0" name="СТ. МЕТРО &quot;ПР.ПРОСВЕЩЕНИЯ&quot;" isBlocking="false"/>
		<stopFacility id="23925.link:179839023_0" x="685618.8640501271" y="6661905.069975978" linkRefId="179839023_0" name="СТ. МЕТРО &quot;ПР.ПРОСВЕЩЕНИЯ&quot;" isBlocking="false"/>
		<stopFacility id="23927.link:318767349_0" x="685499.6023388654" y="6646434.14164296" linkRefId="318767349_0" name="5-Я КРАСНОАРМЕЙСКАЯ УЛ." isBlocking="false"/>
		<stopFacility id="23930.link:318767355_0" x="685530.5438915474" y="6646041.799065743" linkRefId="318767355_0" name="НАБ. ОБВОДНОГО КНАЛА" isBlocking="false"/>
		<stopFacility id="23931.link:194972655_0" x="682580.9446140168" y="6657215.765356931" linkRefId="194972655_0" name="ПР. КОРОЛЁВА" isBlocking="false"/>
		<stopFacility id="23932.link:139904174_0" x="685578.8043116912" y="6645165.738304714" linkRefId="139904174_0" name="КИЕВСКАЯ УЛ." isBlocking="false"/>
		<stopFacility id="23933.link:318767351_0" x="685620.683831315" y="6644702.885603292" linkRefId="318767351_0" name="ТРАМПАРК №1" isBlocking="false"/>
		<stopFacility id="23934.link:318767359_0" x="685674.74716621" y="6644206.174505552" linkRefId="318767359_0" name="ДЕТСКАЯ МУЗЫКАЛЬНАЯ ШКОЛА" isBlocking="false"/>
		<stopFacility id="2394.link:156494601_0" x="684451.34344662" y="6653006.336489803" linkRefId="156494601_0" name="УЛ. ЧАПЫГИНА" isBlocking="false"/>
		<stopFacility id="23949.link:31374678_0_r" x="687647.9131757303" y="6656150.658327411" linkRefId="31374678_0_r" name="СТ. МЕТРО &quot;ПЛ. МУЖЕСТВА&quot;" isBlocking="false"/>
		<stopFacility id="23950.link:31374678_0" x="687658.2194440276" y="6656149.063521038" linkRefId="31374678_0" name="СТ. МЕТРО &quot;ПЛ. МУЖЕСТВА&quot;" isBlocking="false"/>
		<stopFacility id="23951.link:165555866_0" x="687493.9805288841" y="6655917.806747134" linkRefId="165555866_0" name="УЛ. КАРБЫШЕВА, 10" isBlocking="false"/>
		<stopFacility id="23951.link:99702451_0" x="687493.9805288841" y="6655917.806747134" linkRefId="99702451_0" name="УЛ. КАРБЫШЕВА, 10" isBlocking="false"/>
		<stopFacility id="23953.link:131643090_0" x="686450.3730200257" y="6654493.483691463" linkRefId="131643090_0" name="СТ. МЕТРО &quot;ЛЕСНАЯ&quot;" isBlocking="false"/>
		<stopFacility id="23954.link:135546695_0" x="686507.5523392386" y="6654134.371893068" linkRefId="135546695_0" name="УЛ. АЛЕКСАНДРА МАТРОСОВА" isBlocking="false"/>
		<stopFacility id="23954.link:135546695_1" x="686507.5523392386" y="6654134.371893068" linkRefId="135546695_1" name="УЛ. АЛЕКСАНДРА МАТРОСОВА" isBlocking="false"/>
		<stopFacility id="23956.link:156398314_0_r" x="687202.2473709561" y="6651553.528087237" linkRefId="156398314_0_r" name="СТ. МЕТРО &quot;ПЛ. ЛЕНИНА&quot;" isBlocking="false"/>
		<stopFacility id="23957.link:156398249_0_r" x="686874.8586214413" y="6651597.960245068" linkRefId="156398249_0_r" name="БОТКИНСКАЯ УЛ., 23" isBlocking="false"/>
		<stopFacility id="23958.link:190505820_6" x="685779.4967486439" y="6647008.751422603" linkRefId="190505820_6" name="ВЕРЕЙСКАЯ УЛ." isBlocking="false"/>
		<stopFacility id="23959.link:28878139_0_r" x="687025.6293974951" y="6650230.426861334" linkRefId="28878139_0_r" name="УЛ. ЧАЙКОВСКОГО" isBlocking="false"/>
		<stopFacility id="23960.link:28878139_0" x="687037.3799136509" y="6650241.508384777" linkRefId="28878139_0" name="УЛ. ЧАЙКОВСКОГО" isBlocking="false"/>
		<stopFacility id="23960.link:30893629_0" x="687037.3799136509" y="6650241.508384777" linkRefId="30893629_0" name="УЛ. ЧАЙКОВСКОГО" isBlocking="false"/>
		<stopFacility id="23961.link:515909222_0" x="687555.4106734644" y="6649913.4728991045" linkRefId="515909222_0" name="СТ. МЕТРО &quot;ЧЕРНЫШЕВСКАЯ&quot;" isBlocking="false"/>
		<stopFacility id="23962.link:515904506_0" x="687553.2777498167" y="6649932.32950625" linkRefId="515904506_0" name="СТ. МЕТРО &quot;ЧЕРНЫШЕВСКАЯ&quot;" isBlocking="false"/>
		<stopFacility id="23963.link:279146_0_r" x="687055.7540850968" y="6648715.7781738965" linkRefId="279146_0_r" name="НЕВСКИЙ ПР." isBlocking="false"/>
		<stopFacility id="23963.link:850727_0" x="687055.7540850968" y="6648715.7781738965" linkRefId="850727_0" name="НЕВСКИЙ ПР." isBlocking="false"/>
		<stopFacility id="23964.link:142024591_0" x="686723.2027977408" y="6647862.508641056" linkRefId="142024591_0" name="РАЗЪЕЗЖАЯ УЛ." isBlocking="false"/>
		<stopFacility id="23965.link:142024591_1" x="686502.7867196042" y="6647658.499975504" linkRefId="142024591_1" name="СТ. МЕТРО &quot;ЗВЕНИГОРОДСКАЯ&quot;" isBlocking="false"/>
		<stopFacility id="23965.link:142024591_2" x="686502.7867196042" y="6647658.499975504" linkRefId="142024591_2" name="СТ. МЕТРО &quot;ЗВЕНИГОРОДСКАЯ&quot;" isBlocking="false"/>
		<stopFacility id="23966.link:218508360_8" x="685583.7173692418" y="6646883.2376803495" linkRefId="218508360_8" name="СТАНЦИЯ МЕТРО &quot;ТЕХНОЛОГИЧЕСКИЙ ИНСТИТУТ&quot;" isBlocking="false"/>
		<stopFacility id="23967.link:318767342_0" x="685435.7146539716" y="6646712.83238911" linkRefId="318767342_0" name="СТАНЦИЯ МЕТРО &quot;ТЕХНОЛОГИЧЕСКИЙ ИНСТИТУТ&quot;" isBlocking="false"/>
		<stopFacility id="23968.link:183080180_0" x="686462.5709713111" y="6647602.03191253" linkRefId="183080180_0" name="СТ. МЕТРО &quot;ЗВЕНИГОРОДСКАЯ&quot;" isBlocking="false"/>
		<stopFacility id="23968.link:528480961_0" x="686462.5709713111" y="6647602.03191253" linkRefId="528480961_0" name="СТ. МЕТРО &quot;ЗВЕНИГОРОДСКАЯ&quot;" isBlocking="false"/>
		<stopFacility id="23969.link:392286920_0" x="686820.1823685318" y="6647920.2870659055" linkRefId="392286920_0" name="РАЗЪЕЗЖАЯ УЛ." isBlocking="false"/>
		<stopFacility id="23971.link:33065979_0" x="687103.2916191532" y="6651143.890432159" linkRefId="33065979_0" name="УЛ. КОМСОМОЛА" isBlocking="false"/>
		<stopFacility id="23972.link:329343280_1" x="686978.4683191465" y="6652553.902581509" linkRefId="329343280_1" name="НЕШЛОТСКИЙ ПЕР." isBlocking="false"/>
		<stopFacility id="23989.link:178568774_0" x="687466.1699585954" y="6647367.096190635" linkRefId="178568774_0" name="СТ. МЕТРО &quot;ЛИГОВСКИЙ ПР.&quot;" isBlocking="false"/>
		<stopFacility id="23990.link:221310442_0" x="687367.6105794328" y="6646854.067547701" linkRefId="221310442_0" name="СТ. МЕТРО &quot;ОБВОДНЫЙ КАНАЛ&quot;" isBlocking="false"/>
		<stopFacility id="23991.link:172360142_0" x="687513.3667886136" y="6647404.965271501" linkRefId="172360142_0" name="СТ. МЕТРО &quot;ЛИГОВСКИЙ ПР.&quot;" isBlocking="false"/>
		<stopFacility id="23991.link:178568772_0" x="687513.3667886136" y="6647404.965271501" linkRefId="178568772_0" name="СТ. МЕТРО &quot;ЛИГОВСКИЙ ПР.&quot;" isBlocking="false"/>
		<stopFacility id="23992.link:118837198_1" x="687352.9424878159" y="6647476.148409903" linkRefId="118837198_1" name="СТ. МЕТРО &quot;ЛИГОВСКИЙ ПР.&quot;" isBlocking="false"/>
		<stopFacility id="23995.link:142024591_3" x="686433.0338690616" y="6647548.110946815" linkRefId="142024591_3" name="СТАНЦИЯ МЕТРО &quot;ЗВЕНИГОРОДСКАЯ&quot;" isBlocking="false"/>
		<stopFacility id="23997.link:135546695_0" x="686439.0478336667" y="6654397.975791424" linkRefId="135546695_0" name="СТ. МЕТРО &quot;ЛЕСНАЯ&quot;" isBlocking="false"/>
		<stopFacility id="23998.link:193846457_0" x="686895.5532035141" y="6652779.733828319" linkRefId="193846457_0" name="СТ. МЕТРО &quot;ВЫБОРГСКАЯ&quot;" isBlocking="false"/>
		<stopFacility id="23998.link:200394523_0" x="686895.5532035141" y="6652779.733828319" linkRefId="200394523_0" name="СТ. МЕТРО &quot;ВЫБОРГСКАЯ&quot;" isBlocking="false"/>
		<stopFacility id="23999.link:156398314_0" x="687216.5455496232" y="6651520.897410388" linkRefId="156398314_0" name="СТ. МЕТРО &quot;ПЛ. ЛЕНИНА&quot;" isBlocking="false"/>
		<stopFacility id="24000.link:196766393_0" x="686859.6835473191" y="6653029.702739592" linkRefId="196766393_0" name="СТ. МЕТРО &quot;ВЫБОРГСКАЯ&quot;" isBlocking="false"/>
		<stopFacility id="24001.link:31366106_2" x="686544.6329230911" y="6654136.247485147" linkRefId="31366106_2" name="УЛ. АЛЕКСАНДРА МАТРОСОВА" isBlocking="false"/>
		<stopFacility id="24007.link:368423579_0" x="694094.5359745389" y="6648503.806350082" linkRefId="368423579_0" name="РОССИЙСКИЙ ПР., 14" isBlocking="false"/>
		<stopFacility id="2404.link:196503564_0" x="693691.70116858" y="6641584.198577767" linkRefId="196503564_0" name="МУЗЕЙ &quot;НЕВСКАЯ ЗАСТАВА&quot;" isBlocking="false"/>
		<stopFacility id="2406.link:272696_0_r" x="693847.03457252" y="6641762.578214488" linkRefId="272696_0_r" name="УЛ. ШЕЛГУНОВА,УГОЛ ПР. ОБУХОВСКОЙ ОБОРОНЫ" isBlocking="false"/>
		<stopFacility id="2410.link:31397172_0" x="682985.0616247819" y="6658947.5724790385" linkRefId="31397172_0" name="УЛ. ЩЕРБАКОВА" isBlocking="false"/>
		<stopFacility id="24237.link:156618482_0" x="680707.2796099479" y="6650893.765353061" linkRefId="156618482_0" name="НАЛИЧНАЯ УЛ., УГ. УРАЛЬСКОЙ УЛ. " isBlocking="false"/>
		<stopFacility id="2424.link:173948375_0" x="680546.4650886051" y="6650335.090473692" linkRefId="173948375_0" name="УНИВЕРСАМ &quot;ГАВАНСКИЙ&quot;" isBlocking="false"/>
		<stopFacility id="2424.link:321630663_0_r" x="680546.4650886051" y="6650335.090473692" linkRefId="321630663_0_r" name="УНИВЕРСАМ &quot;ГАВАНСКИЙ&quot;" isBlocking="false"/>
		<stopFacility id="2425.link:142893694_1" x="694208.9052377534" y="6647175.307555518" linkRefId="142893694_1" name="УНИВЕРСАМ &quot;НЕВСКИЙ&quot;" isBlocking="false"/>
		<stopFacility id="24263.link:128178866_1_r" x="687117.6321991275" y="6651954.63919288" linkRefId="128178866_1_r" name="УЛ. КОМИССАРА СМИРНОВА" isBlocking="false"/>
		<stopFacility id="2427.link:361556347_0" x="684507.7882806829" y="6649384.928438235" linkRefId="361556347_0" name="УНИВЕРСИТЕТ" isBlocking="false"/>
		<stopFacility id="2428.link:pt_2428" x="688183.7495531375" y="6643709.853022971" linkRefId="pt_2428" name="УНИВЕРСИТЕТ КИНО И ТЕЛЕВИДЕНИЯ" isBlocking="false"/>
		<stopFacility id="24379.link:364669653_0" x="685492.1978588572" y="6646895.489618923" linkRefId="364669653_0" name="ЗАГОРОДНЫЙ ПР." isBlocking="false"/>
		<stopFacility id="24398.link:411606692_0_r" x="682910.3688241497" y="6654216.229564971" linkRefId="411606692_0_r" name="УЛ. ОСКАЛЕНКО" isBlocking="false"/>
		<stopFacility id="24540.link:4455242_0" x="682543.3323922717" y="6641203.732135865" linkRefId="4455242_0" name="СТ.МЕТРО &quot;АВТОВО&quot;" isBlocking="false"/>
		<stopFacility id="24557.link:446493277_0" x="685571.5843408976" y="6663664.51341115" linkRefId="446493277_0" name="СТ. МЕТРО &quot;ПАРНАС&quot; " isBlocking="false"/>
		<stopFacility id="24557.link:540483184_0" x="685571.5843408976" y="6663664.51341115" linkRefId="540483184_0" name="СТ. МЕТРО &quot;ПАРНАС&quot; " isBlocking="false"/>
		<stopFacility id="24558.link:350642229_0" x="685677.4521232999" y="6663582.064718432" linkRefId="350642229_0" name="СТ. МЕТРО &quot;ПАРНАС&quot;" isBlocking="false"/>
		<stopFacility id="24561.link:417333925_0" x="689203.7214978279" y="6641865.999164139" linkRefId="417333925_0" name="СТ. МЕТРО &quot;МЕЖДУНАРОДНАЯ&quot;" isBlocking="false"/>
		<stopFacility id="2468.link:424191015_1" x="695458.1765105493" y="6638926.280827026" linkRefId="424191015_1" name="ШЛИССЕЛЬБУРГСКИЙ ПР.,1" isBlocking="false"/>
		<stopFacility id="2471.link:37756811_0" x="695847.2577753102" y="6638736.496021618" linkRefId="37756811_0" name="ШЛИССЕЛЬБУРГСКИЙ ПР.,УНИВЕРСАМ" isBlocking="false"/>
		<stopFacility id="24920.link:31402368_0" x="688259.6142489858" y="6661991.570092133" linkRefId="31402368_0" name="А.С. &quot;ПР. КУЛЬТУРЫ&quot; (ВЫСАДКИ И ПОСАДКИ НЕТ)" isBlocking="false"/>
		<stopFacility id="24920.link:9888732_0" x="688259.6142489858" y="6661991.570092133" linkRefId="9888732_0" name="А.С. &quot;ПР. КУЛЬТУРЫ&quot; (ВЫСАДКИ И ПОСАДКИ НЕТ)" isBlocking="false"/>
		<stopFacility id="24981.link:343513742_0" x="682833.074011157" y="6658512.110562695" linkRefId="343513742_0" name="ВЕРБНАЯ УЛ." isBlocking="false"/>
		<stopFacility id="2501.link:374288778_1_r" x="682294.6341607741" y="6649078.167592054" linkRefId="374288778_1_r" name="18-19 ЛИНИИ" isBlocking="false"/>
		<stopFacility id="2508.link:31387077_0_r" x="681997.4333328236" y="6648888.274055945" linkRefId="31387077_0_r" name="22-23 ЛИНИИ" isBlocking="false"/>
		<stopFacility id="2514.link:587906327_0" x="681610.5568745902" y="6648608.999374411" linkRefId="587906327_0" name="28-29 ЛИНИИ (ПО СРЕДНЕМУ ПР. В.О.)" isBlocking="false"/>
		<stopFacility id="25144.link:123369651_3" x="689763.0227814408" y="6640977.804991086" linkRefId="123369651_3" name="УНИВЕРСАМ" isBlocking="false"/>
		<stopFacility id="25145.link:8145664_0" x="689755.0388960617" y="6640914.5875152005" linkRefId="8145664_0" name="УНИВЕРСАМ" isBlocking="false"/>
		<stopFacility id="2537.link:31402297_4" x="684901.9417254135" y="6646279.940279212" linkRefId="31402297_4" name=" САД ВАЛЕТИНА ПИКУЛЯ" isBlocking="false"/>
		<stopFacility id="2545.link:528751499_0" x="681624.9803161975" y="6654748.136325558" linkRefId="528751499_0" name="СТ. МЕТРО &quot;СТАРАЯ ДЕРЕВНЯ&quot;" isBlocking="false"/>
		<stopFacility id="25607.link:31396430_0" x="687127.213510803" y="6648215.604556495" linkRefId="31396430_0" name="СТ. М. &quot;ВЛАДИМИРСКАЯ&quot;" isBlocking="false"/>
		<stopFacility id="2562.link:218475447_0_r" x="685715.99095385" y="6648188.926276184" linkRefId="218475447_0_r" name="АПРАКСИН ПЕР.,ТЕАТР &quot;ПРИЮТ КОМЕДИАНТА&quot;" isBlocking="false"/>
		<stopFacility id="2566.link:286664369_1" x="691237.2224187183" y="6645064.219576175" linkRefId="286664369_1" name="Б. СМОЛЕНСКИЙ ПР.,УГ. УЛ. БАБУШКИНА" isBlocking="false"/>
		<stopFacility id="25731.link:484376269_1" x="685827.7032812604" y="6662399.890821198" linkRefId="484376269_1" name="УЛ. ШОСТАКОВИЧА" isBlocking="false"/>
		<stopFacility id="25732.link:439920802_0" x="685769.1390385831" y="6662381.090039128" linkRefId="439920802_0" name="УЛ. ШОСТАКОВИЧА" isBlocking="false"/>
		<stopFacility id="2583.link:172005094_0" x="687927.6169648127" y="6648974.659327916" linkRefId="172005094_0" name="БКЗ &quot;ОКТЯБРЬСКИЙ&quot;" isBlocking="false"/>
		<stopFacility id="2584.link:142142196_0" x="685813.5616026621" y="6642155.655518701" linkRefId="142142196_0" name="БЛАГОДАТНАЯ УЛ." isBlocking="false"/>
		<stopFacility id="2595.link:362775812_0" x="683773.0924408033" y="6649547.534068963" linkRefId="362775812_0" name="БОЛЬШОЙ ПР. В.О." isBlocking="false"/>
		<stopFacility id="2615.link:157866797_3" x="691061.4170068773" y="6637021.912374641" linkRefId="157866797_3" name="БУДАПЕШТСКАЯ УЛ. УГ. М. БАЛКАНСКОЙ УЛ." isBlocking="false"/>
		<stopFacility id="2620.link:436824143_0" x="692932.6916672897" y="6642350.553815317" linkRefId="436824143_0" name="УЛ. БАБУШКИНА, УГ. БУЛЬВАРА КРАСНЫХ ЗОРЬ" isBlocking="false"/>
		<stopFacility id="2633.link:331995954_0" x="688991.0079736747" y="6642317.999292599" linkRefId="331995954_0" name="МАГАЗИН &quot;ГРАНАТ&quot;" isBlocking="false"/>
		<stopFacility id="2662.link:35497072_0" x="680825.5732321303" y="6648903.3494480755" linkRefId="35497072_0" name="ГАВАНСКАЯ УЛ. УГ. МАЛОГО ПР." isBlocking="false"/>
		<stopFacility id="2677.link:135039607_1" x="689567.1657506508" y="6658169.473711868" linkRefId="135039607_1" name="ГРАЖДАНСКИЙ ПР.,90" isBlocking="false"/>
		<stopFacility id="2683.link:400677470_0" x="682174.0354201526" y="6638663.632080859" linkRefId="400677470_0" name="ДАЧНЫЙ ПР." isBlocking="false"/>
		<stopFacility id="2686.link:150184627_0" x="684986.7578902121" y="6649263.752967588" linkRefId="150184627_0" name="ДВОРЦОВАЯ НАБ." isBlocking="false"/>
		<stopFacility id="2695.link:228937291_0" x="687603.0273853543" y="6645723.432736247" linkRefId="228937291_0" name="ДНЕПРОПЕТРОВСКАЯ УЛ." isBlocking="false"/>
		<stopFacility id="27086.link:358225231_1" x="683420.5846831457" y="6650031.541570346" linkRefId="358225231_1" name="1-Я И КАДЕТСКАЯ ЛИНИИ В.О." isBlocking="false"/>
		<stopFacility id="2717.link:187230874_1_r" x="685245.846105696" y="6657563.680574646" linkRefId="187230874_1_r" name="ДРЕЗДЕНСКАЯ УЛ." isBlocking="false"/>
		<stopFacility id="2741.link:316254311_0" x="691497.9617952451" y="6637086.141082921" linkRefId="316254311_0" name="ЗАГРЕБСКИЙ БУЛЬВАР" isBlocking="false"/>
		<stopFacility id="2746.link:143887380_0" x="691355.668941758" y="6648731.139098183" linkRefId="143887380_0" name="ЗАНЕВСКИЙ ПР.,З2" isBlocking="false"/>
		<stopFacility id="2747.link:308301797_0" x="685704.3286660018" y="6643616.538873763" linkRefId="308301797_0" name="ЗАСТАВСКАЯ УЛ." isBlocking="false"/>
		<stopFacility id="2764.link:243405_0" x="686406.23884813" y="6649175.806676218" linkRefId="243405_0" name="ИНЖЕНЕРНАЯ УЛ." isBlocking="false"/>
		<stopFacility id="2774.link:143818842_2" x="688744.735144313" y="6648021.417807173" linkRefId="143818842_2" name="ИСПОЛКОМСКАЯ УЛ." isBlocking="false"/>
		<stopFacility id="2776.link:197511870_2_r" x="683489.7384094592" y="6649853.819295745" linkRefId="197511870_2_r" name="КАДЕТСКАЯ ЛИНИЯ УГ. СРЕДНЕГО ПР." isBlocking="false"/>
		<stopFacility id="2781.link:399135410_0" x="684118.0345485453" y="6653709.645156166" linkRefId="399135410_0" name="КАМЕННЫЙ ОСТРОВ" isBlocking="false"/>
		<stopFacility id="2782.link:418319613_0" x="681597.3028841373" y="6656362.097377918" linkRefId="418319613_0" name="КАМЫШОВАЯ УЛ." isBlocking="false"/>
		<stopFacility id="2789.link:243143_0" x="687783.9818815114" y="6644793.2996480325" linkRefId="243143_0" name="КАСИМОВСКАЯ УЛ." isBlocking="false"/>
		<stopFacility id="2797.link:471277463_1_r" x="687741.691857802" y="6649218.221448094" linkRefId="471277463_1_r" name="КОВЕНСКИЙ ПЕР." isBlocking="false"/>
		<stopFacility id="2802.link:31387126_0" x="682395.2852927167" y="6642117.698614379" linkRefId="31387126_0" name="КОМСОМОЛЬСКАЯ ПЛОЩАДЬ" isBlocking="false"/>
		<stopFacility id="2831.link:142142191_0" x="685847.2060532554" y="6641726.526399882" linkRefId="142142191_0" name="КУЗНЕЦОВСКАЯ УЛ." isBlocking="false"/>
		<stopFacility id="2833.link:31389889_0" x="687657.0884950641" y="6647964.024336249" linkRefId="31389889_0" name="КУЗНЕЧНЫЙ ПЕРЕУЛОК" isBlocking="false"/>
		<stopFacility id="2837.link:365264114_1" x="690492.2146645162" y="6637120.272935989" linkRefId="365264114_1" name="КУПЧИНСКАЯ УЛ. (ПО УЛ. О. ДУНДИЧА)" isBlocking="false"/>
		<stopFacility id="2853.link:348026142_0" x="682383.5640915387" y="6639329.929161024" linkRefId="348026142_0" name="УЛ. ЗИНЫ ПОРТНОВОЙ, УГ. ЛЕНИНСКОГО ПР. " isBlocking="false"/>
		<stopFacility id="2854.link:31399206_3" x="694243.8015615933" y="6650024.008750667" linkRefId="31399206_3" name="ЛЕНСКАЯ УЛ." isBlocking="false"/>
		<stopFacility id="2862.link:143681952_0" x="686288.9357347081" y="6649625.929189777" linkRefId="143681952_0" name="ЛЕТНИЙ САД" isBlocking="false"/>
		<stopFacility id="2864.link:576484873_0" x="686996.1506453647" y="6648640.137631067" linkRefId="576484873_0" name="ЛИТЕЙНЫЙ ПР." isBlocking="false"/>
		<stopFacility id="2871.link:326725013_0" x="689674.9399486209" y="6637462.168800666" linkRefId="326725013_0" name="МАЛАЯ БАЛКАНСКАЯ УЛ. ПО УЛ. Я. ГАШЕКА" isBlocking="false"/>
		<stopFacility id="2872.link:157922810_0" x="689808.4783752688" y="6637190.099195605" linkRefId="157922810_0" name="МАЛАЯ БАЛКАНСКАЯ УЛ. УГ. УЛ. О. ДУНДИЧА" isBlocking="false"/>
		<stopFacility id="2875.link:31397914_1" x="680638.0879275562" y="6648978.505466735" linkRefId="31397914_1" name="МАЛЫЙ ПР. В.О.,УГ. НАЛИЧНОЙ УЛ." isBlocking="false"/>
		<stopFacility id="2877.link:161777264_0_r" x="685324.4223713133" y="6657254.050303327" linkRefId="161777264_0_r" name="МАНЧЕСТЕРСКАЯ УЛ." isBlocking="false"/>
		<stopFacility id="2891.link:31380964_0" x="687725.4654193367" y="6648254.982406274" linkRefId="31380964_0" name="МОСКОВСКИЙ ВОКЗАЛ" isBlocking="false"/>
		<stopFacility id="2893.link:223451730_0" x="685792.4045568813" y="6643111.495321301" linkRefId="223451730_0" name="МОСКОВСКИЙ ПР.,129" isBlocking="false"/>
		<stopFacility id="2909.link:294248_0_r" x="683257.1100097792" y="6645389.11572934" linkRefId="294248_0_r" name="НАРВСКИЙ ПР." isBlocking="false"/>
		<stopFacility id="2916.link:572418415_0_r" x="686299.8788281517" y="6648731.804907511" linkRefId="572418415_0_r" name="НЕВСКИЙ ПР." isBlocking="false"/>
		<stopFacility id="2937.link:31388709_1" x="682897.1963828538" y="6643367.01599576" linkRefId="31388709_1" name="ОГОРОДНЫЙ ПЕР." isBlocking="false"/>
		<stopFacility id="29444.link:304925217_0" x="695021.0068639619" y="6639981.8203741" linkRefId="304925217_0" name="«ОБУХОВСКИЙ СПОРТИВНЫЙ КОМПЛЕКС» " isBlocking="false"/>
		<stopFacility id="2982.link:31401746_0" x="683117.7079355635" y="6644800.488504836" linkRefId="31401746_0" name="СТ.М.&quot;НАРВСКАЯ&quot;" isBlocking="false"/>
		<stopFacility id="2985.link:327576191_1" x="684987.8960539344" y="6659626.872815" linkRefId="327576191_1" name="ПОКЛОННАЯ ГОРА" isBlocking="false"/>
		<stopFacility id="2992.link:143818842_0" x="688456.2155940982" y="6648207.278873939" linkRefId="143818842_0" name="ПОЛТАВСКАЯ УЛ." isBlocking="false"/>
		<stopFacility id="3015.link:347257556_1" x="680075.3179442623" y="6637201.7806855915" linkRefId="347257556_1" name="УНИВЕРСАМ &quot;ТАЛЛИНСКИЙ&quot;" isBlocking="false"/>
		<stopFacility id="3025.link:199621878_0" x="688419.5110019767" y="6637512.096189351" linkRefId="199621878_0" name="ПР. КОСМОНАВТОВ" isBlocking="false"/>
		<stopFacility id="3064.link:347253000_0_r" x="679141.0321164847" y="6637121.975695345" linkRefId="347253000_0_r" name="ПР. МАРШАЛА ЖУКОВА,УГ. ПР. ВЕТЕРАНОВ" isBlocking="false"/>
		<stopFacility id="3090.link:270250888_0" x="694917.4577860078" y="6640459.699592428" linkRefId="270250888_0" name="ПР. ОБУХОВСКОЙ ОБОРОНЫ, 126А (ТОЛЬКО ОБР.,ПО ТРЕБОВ.)" isBlocking="false"/>
		<stopFacility id="3091.link:4460152_0" x="689383.3332519815" y="6647751.865895843" linkRefId="4460152_0" name="ПР. ОБУХОВСКОЙ ОБОРОНЫ" isBlocking="false"/>
		<stopFacility id="3092.link:269864306_2" x="694578.6625730979" y="6641312.034748778" linkRefId="269864306_2" name="ОБУХОВСКИЙ ЗАВОД" isBlocking="false"/>
		<stopFacility id="3093.link:525451024_0" x="694766.3344613028" y="6641030.584134321" linkRefId="525451024_0" name="МУЗЕЙ ИСТОРИИ ОБУХОВСКОГО ЗАВОДА" isBlocking="false"/>
		<stopFacility id="3099.link:144529113_0" x="690049.2208435598" y="6660424.524561778" linkRefId="144529113_0" name="ПР. ПРОСВЕЩЕНИЯ,УГ. УЛ. УШИНСКОГО" isBlocking="false"/>
		<stopFacility id="3104.link:181364114_0" x="682417.9745184552" y="6656652.953685644" linkRefId="181364114_0" name="ПР. СИЗОВА" isBlocking="false"/>
		<stopFacility id="3112.link:229810167_1" x="683222.8274709113" y="6644103.384416685" linkRefId="229810167_1" name="АДМИНИСТРАЦИЯ КИРОВСКОГО РАЙОНА" isBlocking="false"/>
		<stopFacility id="3121.link:194452820_1" x="690856.9571457556" y="6648519.4780282555" linkRefId="194452820_1" name="ПР. ШАУМЯНА,ТЕАТР &quot;БУФФ&quot;" isBlocking="false"/>
		<stopFacility id="3122.link:143346863_0" x="685307.4736593894" y="6660908.558130383" linkRefId="143346863_0" name="ПР. ЭНГЕЛЬСА УГ. ПР. ЛУНАЧАРСКОГО" isBlocking="false"/>
		<stopFacility id="3137.link:366740295_0" x="690515.2019902503" y="6640940.653585928" linkRefId="366740295_0" name="ПРАЖСКАЯ УЛ." isBlocking="false"/>
		<stopFacility id="3175.link:321360996_0" x="695110.9630174004" y="6639620.71189081" linkRefId="321360996_0" name="РЫБАЦКИЙ ПРОСП." isBlocking="false"/>
		<stopFacility id="3191.link:181331253_0" x="685453.0121234695" y="6656490.340387563" linkRefId="181331253_0" name="СВЕТЛАНОВСКАЯ ПЛОЩАДЬ" isBlocking="false"/>
		<stopFacility id="3192.link:200468550_0" x="689537.5215220123" y="6661187.006866231" linkRefId="200468550_0" name="СВЕТЛАНОВСКИЙ ПР." isBlocking="false"/>
		<stopFacility id="3197.link:510189375_0_r" x="689744.6070120756" y="6658558.268645161" linkRefId="510189375_0_r" name="СЕВЕРНЫЙ ПР." isBlocking="false"/>
		<stopFacility id="3227.link:31366309_0" x="691117.9840348242" y="6641356.143514737" linkRefId="31366309_0" name="СОФИЙСКАЯ УЛ." isBlocking="false"/>
		<stopFacility id="3231.link:31401170_0" x="691304.21913312" y="6641443.6271498585" linkRefId="31401170_0" name="СОФИЙСКАЯ УЛ. УГ. ПР. СЛАВЫ" isBlocking="false"/>
		<stopFacility id="3244.link:31400789_0_r" x="681049.4824624243" y="6648284.866586346" linkRefId="31400789_0_r" name="СРЕДНИЙ ПР.,УГ. ГАВАНСКОЙ УЛ." isBlocking="false"/>
		<stopFacility id="3248.link:302455255_0" x="683224.5607379352" y="6649659.274700819" linkRefId="302455255_0" name="СТ. МЕТРО &quot;ВАСИЛЕОСТРОВСКАЯ&quot;" isBlocking="false"/>
		<stopFacility id="3250.link:172138793_0" x="685468.9166554009" y="6651114.517969013" linkRefId="172138793_0" name="СТ. МЕТРО &quot;ГОРЬКОВСКАЯ&quot;" isBlocking="false"/>
		<stopFacility id="3251.link:460000661_0" x="686548.5673542281" y="6648754.950403042" linkRefId="460000661_0" name="СТ. МЕТРО &quot;ГОСТИНЫЙ ДВОР&quot;" isBlocking="false"/>
		<stopFacility id="3253.link:542225500_0" x="691531.259866839" y="6644759.795261979" linkRefId="542225500_0" name="СТ. МЕТРО &quot;ЕЛИЗАРОВСКАЯ&quot;" isBlocking="false"/>
		<stopFacility id="3254.link:342756442_1" x="687713.0395803299" y="6637501.605856612" linkRefId="342756442_1" name="СТ. МЕТРО &quot;ЗВЕЗДНАЯ&quot;" isBlocking="false"/>
		<stopFacility id="3256.link:427378990_1" x="682471.2383469327" y="6642415.364281582" linkRefId="427378990_1" name="СТ. МЕТРО &quot;КИРОВСКИЙ ЗАВОД&quot;" isBlocking="false"/>
		<stopFacility id="3258.link:100444295_0" x="681648.631906703" y="6656610.368162186" linkRefId="100444295_0" name="СТ. МЕТРО &quot;КОМЕНДАНТСКИЙ ПРОСПЕКТ&quot;" isBlocking="false"/>
		<stopFacility id="3261.link:243111_0" x="689500.1476191913" y="6637266.93275947" linkRefId="243111_0" name="СТ. МЕТРО &quot;КУПЧИНО&quot;" isBlocking="false"/>
		<stopFacility id="3266.link:31402714_1" x="687500.0402000914" y="6647432.513374575" linkRefId="31402714_1" name="СТ. МЕТРО &quot;ЛИГОВСКИЙ ПР.&quot;" isBlocking="false"/>
		<stopFacility id="3267.link:538610187_0" x="692593.6022902051" y="6642851.243883734" linkRefId="538610187_0" name="СТ. МЕТРО &quot;ЛОМОНОСОВСКАЯ&quot;" isBlocking="false"/>
		<stopFacility id="3268.link:60946989_0" x="686156.2856663232" y="6639763.761999451" linkRefId="60946989_0" name="СТ. МЕТРО &quot;МОСКОВСКАЯ&quot;" isBlocking="false"/>
		<stopFacility id="3271.link:143525636_0" x="685761.3774718298" y="6648879.832637515" linkRefId="143525636_0" name="СТ. МЕТРО &quot;НЕВСКИЙ ПР.&quot;" isBlocking="false"/>
		<stopFacility id="3273.link:390879425_0" x="685063.1638540427" y="6660135.781836427" linkRefId="390879425_0" name="СТ. МЕТРО &quot;ОЗЕРКИ&quot;" isBlocking="false"/>
		<stopFacility id="3274.link:315571276_0" x="685895.7713172856" y="6641109.621920211" linkRefId="315571276_0" name="СТАНЦИЯ МЕТРО &quot;ПАРК ПОБЕДЫ&quot;" isBlocking="false"/>
		<stopFacility id="3275.link:331468568_0" x="684795.44339478" y="6652313.184506122" linkRefId="331468568_0" name="СТ. МЕТРО &quot;ПЕТРОГРАДСКАЯ&quot;" isBlocking="false"/>
		<stopFacility id="3276.link:88926644_0" x="683886.3198715765" y="6656212.361196551" linkRefId="88926644_0" name="СТ. МЕТРО &quot;ПИОНЕРСКАЯ&quot;" isBlocking="false"/>
		<stopFacility id="3277.link:143874144_0" x="689133.0009028886" y="6647797.729093351" linkRefId="143874144_0" name="СТ. МЕТРО &quot;ПЛОЩАДЬ АЛ. НЕВСКОГО&quot;" isBlocking="false"/>
		<stopFacility id="3277.link:240947_0" x="689133.0009028886" y="6647797.729093351" linkRefId="240947_0" name="СТ. МЕТРО &quot;ПЛОЩАДЬ АЛ. НЕВСКОГО&quot;" isBlocking="false"/>
		<stopFacility id="3278.link:143525645_0" x="687586.0857434198" y="6648524.345591917" linkRefId="143525645_0" name="СТ. МЕТРО &quot;ПЛОЩАДЬ ВОССТАНИЯ&quot;" isBlocking="false"/>
		<stopFacility id="3280.link:90758536_0" x="694043.3021613543" y="6647567.040689311" linkRefId="90758536_0" name="СТ. МЕТРО &quot;ПР. БОЛЬШЕВИКОВ&quot;" isBlocking="false"/>
		<stopFacility id="3285.link:173960752_0" x="680525.0452745676" y="6650120.8818676025" linkRefId="173960752_0" name="СТ. МЕТРО &quot;ПРИМОРСКАЯ&quot;" isBlocking="false"/>
		<stopFacility id="3287.link:308301794_1" x="686027.5679543333" y="6647207.856024815" linkRefId="308301794_1" name="ВИТЕБСКИЙ ВОКЗАЛ, СТ. МЕТРО &quot;ПУШКИНСКАЯ&quot; " isBlocking="false"/>
		<stopFacility id="3289.link:245456247_0" x="685596.3530742541" y="6648034.772314677" linkRefId="245456247_0" name="СТ. МЕТРО &quot;СЕННАЯ ПЛОЩАДЬ&quot;" isBlocking="false"/>
		<stopFacility id="3293.link:318767357_0" x="685551.3534849266" y="6645545.427006337" linkRefId="318767357_0" name="СТ. МЕТРО &quot;ФРУНЗЕНСКАЯ&quot;" isBlocking="false"/>
		<stopFacility id="3298.link:305638441_0" x="685771.2780034995" y="6642648.605902554" linkRefId="305638441_0" name="СТАНЦИЯ МЕТРО &quot;ЭЛЕКТРОСИЛА&quot;" isBlocking="false"/>
		<stopFacility id="3301.link:159265378_2" x="688065.4638331982" y="6645592.184640248" linkRefId="159265378_2" name="СТАРООБРЯДЧЕСКИЙ МОСТ" isBlocking="false"/>
		<stopFacility id="3303.link:31399748_0_r" x="683153.8527942742" y="6645639.113168923" linkRefId="31399748_0_r" name="СТАРО-ПЕТЕРГОФСКИЙ ПР.,27" isBlocking="false"/>
		<stopFacility id="3307.link:143681908_0" x="686082.4249200677" y="6650042.107327116" linkRefId="143681908_0" name="СУВОРОВСКАЯ ПЛОЩАДЬ" isBlocking="false"/>
		<stopFacility id="3308.link:160338253_1" x="688162.6536986856" y="6648401.493795439" linkRefId="160338253_1" name="СУВОРОВСКИЙ ПР." isBlocking="false"/>
		<stopFacility id="3336.link:311267360_0" x="682258.8193014574" y="6640210.801941237" linkRefId="311267360_0" name="ТРАМВАЙНЫЙ ПР." isBlocking="false"/>
		<stopFacility id="3348.link:156494601_0" x="684291.3055256852" y="6653354.525761869" linkRefId="156494601_0" name="УЛ. АКАДЕМИКА ПАВЛОВА" isBlocking="false"/>
		<stopFacility id="3376.link:223470733_0" x="682704.4763209065" y="6642943.10275783" linkRefId="223470733_0" name="УЛ. ВОЗРОЖДЕНИЯ" isBlocking="false"/>
		<stopFacility id="3382.link:294186373_0" x="685964.7822874298" y="6640234.0490707075" linkRefId="294186373_0" name="УЛ. ГАСТЕЛЛО" isBlocking="false"/>
		<stopFacility id="3383.link:347253004_2" x="679615.1380144395" y="6637163.635653634" linkRefId="347253004_2" name="УЛ. ГЕНЕРАЛА СИМОНЯКА" isBlocking="false"/>
		<stopFacility id="3391.link:31386755_0" x="688800.1789972148" y="6661444.284411159" linkRefId="31386755_0" name="УЛ. ДЕМЬЯНА БЕДНОГО УГ. ТИМУРОВСКОЙ УЛ." isBlocking="false"/>
		<stopFacility id="3398.link:538610179_4" x="692023.7182502205" y="6643635.518923347" linkRefId="538610179_4" name="УЛ. ДУДКО" isBlocking="false"/>
		<stopFacility id="3409.link:347641710_0_r" x="682361.8353073958" y="6639882.236860549" linkRefId="347641710_0_r" name="УЛ. ЗИНЫ ПОРТНОВОЙ,1" isBlocking="false"/>
		<stopFacility id="3416.link:347257560_1" x="680642.4252545189" y="6637434.250586852" linkRefId="347257560_1" name="УЛ. КОЗЛОВА" isBlocking="false"/>
		<stopFacility id="3445.link:347257567_1" x="681504.5018648321" y="6638065.833503417" linkRefId="347257567_1" name="УЛ. ЛЕНИ ГОЛИКОВА" isBlocking="false"/>
		<stopFacility id="3447.link:315200373_0" x="686561.6308420249" y="6639676.825916783" linkRefId="315200373_0" name="УЛ. ЛЕНСОВЕТА" isBlocking="false"/>
		<stopFacility id="3448.link:181395506_1" x="687017.6350195494" y="6638171.730469074" linkRefId="181395506_1" name="ПР. ЮРИЯ ГАГАРИНА" isBlocking="false"/>
		<stopFacility id="3449.link:40594931_4" x="687358.573332028" y="6637844.34421575" linkRefId="40594931_4" name="УЛ. ЛЕНСОВЕТА,87" isBlocking="false"/>
		<stopFacility id="3465.link:31403840_0" x="680494.8629735443" y="6649492.750959049" linkRefId="31403840_0" name="УЛ. НАХИМОВА" isBlocking="false"/>
		<stopFacility id="3466.link:31400150_2" x="687718.6371314309" y="6649497.842761271" linkRefId="31400150_2" name="УЛ. НЕКРАСОВА" isBlocking="false"/>
		<stopFacility id="3468.link:157866797_0" x="690902.556051577" y="6637297.326217949" linkRefId="157866797_0" name="УЛ. О. ДУНДИЧА,УГ. БУДАПЕШТСКОЙ УЛ." isBlocking="false"/>
		<stopFacility id="3470.link:200468563_1_r" x="688432.0340134448" y="6658074.396168625" linkRefId="200468563_1_r" name="УЛ. ОБРУЧЕВЫХ" isBlocking="false"/>
		<stopFacility id="3471.link:31386755_1" x="689102.1440071019" y="6661339.196522412" linkRefId="31386755_1" name="УЛ. ОЛЬГИ ФОРШ" isBlocking="false"/>
		<stopFacility id="3475.link:173275448_0" x="687003.8795555298" y="6638748.442087814" linkRefId="173275448_0" name="УЛ. ОРДЖОНИКИДЗЕ" isBlocking="false"/>
		<stopFacility id="3491.link:347353356_0" x="682378.1484282918" y="6638898.094054033" linkRefId="347353356_0" name="УЛ. ПОДВОДНИКА КУЗЬМИНА" isBlocking="false"/>
		<stopFacility id="3491.link:347353357_0" x="682378.1484282918" y="6638898.094054033" linkRefId="347353357_0" name="УЛ. ПОДВОДНИКА КУЗЬМИНА" isBlocking="false"/>
		<stopFacility id="3509.link:183793918_0" x="688442.6407706833" y="6643183.526855574" linkRefId="183793918_0" name="СТ. МЕТРО &quot;БУХАРЕСТСКАЯ&quot;" isBlocking="false"/>
		<stopFacility id="3510.link:161134030_0" x="687994.4169651136" y="6645041.827023659" linkRefId="161134030_0" name="УЛ. САЛОВА ПО ВОЛКОВСКОМУ ПР." isBlocking="false"/>
		<stopFacility id="3533.link:347257560_0" x="680381.9242725805" y="6637265.529589106" linkRefId="347257560_0" name="УЛ. СОЛДАТА КОРЗУНА" isBlocking="false"/>
		<stopFacility id="3536.link:143868591_0" x="690458.6953899779" y="6648302.688262076" linkRefId="143868591_0" name="УЛ. СТАХАНОВЦЕВ" isBlocking="false"/>
		<stopFacility id="3553.link:229810167_0" x="683074.5914200968" y="6643768.878873637" linkRefId="229810167_0" name="УЛ. ТРЕФОЛЕВА" isBlocking="false"/>
		<stopFacility id="3559.link:37727965_0" x="696043.0118613085" y="6638667.288005828" linkRefId="37727965_0" name="УЛ. УСТИНОВА,УГ. ШЛИССЕЛЬБУРГСКОГО ПР." isBlocking="false"/>
		<stopFacility id="3564.link:144529123_0_r" x="690170.7251415673" y="6660941.777409016" linkRefId="144529123_0_r" name="УЛ. УШИНСКОГО,УГ. ТИМУРОВСКОЙ УЛ." isBlocking="false"/>
		<stopFacility id="3567.link:142142195_0" x="685934.6792030013" y="6640617.060787634" linkRefId="142142195_0" name="ПЛОЩАДЬ БРАТЬЕВ СТРУГАЦКИХ" isBlocking="false"/>
		<stopFacility id="3570.link:158898057_0" x="688722.6542835596" y="6642774.423635742" linkRefId="158898057_0" name="УНИВЕРСИТЕТ ПРОФСОЮЗОВ" isBlocking="false"/>
		<stopFacility id="3587.link:272692_0_r" x="693753.5602891336" y="6641657.610360253" linkRefId="272692_0_r" name="МУЗЕЙ &quot;НЕВСКАЯ ЗАСТАВА&quot;" isBlocking="false"/>
		<stopFacility id="3588.link:94689443_0" x="693344.9238248379" y="6641523.910540074" linkRefId="94689443_0" name="УЛ. ШЕЛГУНОВА,УГ. УЛ. БАБУШКИНА" isBlocking="false"/>
		<stopFacility id="3589.link:31403818_1" x="693982.3135379613" y="6641742.994883418" linkRefId="31403818_1" name="УЛ. ШЕЛГУНОВА,УГОЛ ПР. ОБУХОВСКОЙ ОБОРОНЫ" isBlocking="false"/>
		<stopFacility id="3605.link:235233_0" x="680587.3324498655" y="6650394.088129919" linkRefId="235233_0" name="УНИВЕРСАМ &quot;ГАВАНСКИЙ&quot;" isBlocking="false"/>
		<stopFacility id="3606.link:31396539_1" x="694213.4774404074" y="6647102.133746359" linkRefId="31396539_1" name="УНИВЕРСАМ &quot;НЕВСКИЙ&quot;" isBlocking="false"/>
		<stopFacility id="3608.link:361556343_0" x="684355.112248117" y="6649298.326986369" linkRefId="361556343_0" name="УНИВЕРСИТЕТ" isBlocking="false"/>
		<stopFacility id="3609.link:pt_3609" x="688176.7777432476" y="6643649.591925287" linkRefId="pt_3609" name="УНИВЕРСИТЕТ КИНО И ТЕЛЕВИДЕНИЯ" isBlocking="false"/>
		<stopFacility id="3610.link:362775816_1" x="683965.3377957419" y="6649252.011821566" linkRefId="362775816_1" name="УНИВЕРСИТЕТСКАЯ НАБ.,УГ. 1-Й И КАДЕТСКОЙ ЛИНИИ" isBlocking="false"/>
		<stopFacility id="3638.link:31893404_0_r" x="680974.9990991252" y="6648526.616793268" linkRefId="31893404_0_r" name="ШКИПЕРСКИЙ ПРОТОК" isBlocking="false"/>
		<stopFacility id="3647.link:37727965_0" x="695477.1217765729" y="6638947.139317509" linkRefId="37727965_0" name="ШЛИССЕЛЬБУРГСКИЙ ПР.,1" isBlocking="false"/>
[...]
				<link refId="441355165_0"/>
				<link refId="31402282_0"/>
				<link refId="299168659_0"/>
				<link refId="325795953_0"/>
				<link refId="544989443_0"/>
				<link refId="178568773_0"/>
				<link refId="143525644_0"/>
				<link refId="143525638_0"/>
				<link refId="143519876_0"/>
				<link refId="143525634_0"/>
				<link refId="325795952_0"/>
				<link refId="31368931_0"/>
				<link refId="511111435_0"/>
				<link refId="468646555_1"/>
				<link refId="143818841_0"/>
				<link refId="160338253_0"/>
				<link refId="160338253_1"/>
				<link refId="143519861_0"/>
				<link refId="143519861_1"/>
				<link refId="143519870_0"/>
				<link refId="544989444_0"/>
				<link refId="143519871_0"/>
				<link refId="143519875_0"/>
				<link refId="244963_0"/>
				<link refId="143525638_0"/>
				<link refId="143519876_0"/>
				<link refId="143525634_0"/>
				<link refId="325795952_0"/>
				<link refId="31368931_0"/>
				<link refId="143818842_0"/>
				<link refId="143818842_1"/>
				<link refId="143818842_2"/>
				<link refId="239914944_0"/>
				<link refId="145069796_0"/>
				<link refId="143818835_0"/>
				<link refId="301738020_0"/>
			</route>
			<departures>
				<departure id="23221205_02:00:00" departureTime="02:00:00" vehicleRefId="veh_164_bus"/>
			</departures>
		</transitRoute>
		<transitRoute id="23221202">
			<description>shapeId:track-69631</description>
			<transportMode>bus</transportMode>
			<routeProfile>
				<stop refId="4302.link:321360963_0" arrivalOffset="00:00:00" departureOffset="00:00:00" awaitDeparture="true"/>
				<stop refId="3271.link:143525636_0" arrivalOffset="00:03:00" departureOffset="00:03:00" awaitDeparture="true"/>
				<stop refId="2063.link:159746240_0" arrivalOffset="00:04:00" departureOffset="00:04:00" awaitDeparture="true"/>
				<stop refId="2916.link:572418415_0_r" arrivalOffset="00:05:00" departureOffset="00:05:00" awaitDeparture="true"/>
				<stop refId="4112.link:143558793_1_r" arrivalOffset="00:06:00" departureOffset="00:06:00" awaitDeparture="true"/>
				<stop refId="2562.link:218475447_0_r" arrivalOffset="00:07:00" departureOffset="00:07:00" awaitDeparture="true"/>
				<stop refId="2100.link:245456247_0_r" arrivalOffset="00:08:00" departureOffset="00:08:00" awaitDeparture="true"/>
				<stop refId="1695.link:143558785_1" arrivalOffset="00:09:00" departureOffset="00:09:00" awaitDeparture="true"/>
				<stop refId="1709.link:376754063_0" arrivalOffset="00:11:00" departureOffset="00:11:00" awaitDeparture="true"/>
				<stop refId="23958.link:190505820_6" arrivalOffset="00:14:00" departureOffset="00:14:00" awaitDeparture="true"/>
				<stop refId="3287.link:308301794_1" arrivalOffset="00:15:00" departureOffset="00:15:00" awaitDeparture="true"/>
				<stop refId="23991.link:178568772_0" arrivalOffset="00:22:00" departureOffset="00:22:00" awaitDeparture="true"/>
				<stop refId="1625.link:441355165_0" arrivalOffset="00:24:00" departureOffset="00:24:00" awaitDeparture="true"/>
				<stop refId="1691.link:299168659_0" arrivalOffset="00:25:00" departureOffset="00:25:00" awaitDeparture="true"/>
				<stop refId="3308.link:160338253_1" arrivalOffset="00:27:00" departureOffset="00:27:00" awaitDeparture="true"/>
				<stop refId="2992.link:143818842_0" arrivalOffset="00:28:00" departureOffset="00:28:00" awaitDeparture="true"/>
				<stop refId="2774.link:143818842_2" arrivalOffset="00:29:00" departureOffset="00:29:00" awaitDeparture="true"/>
				<stop refId="2089.link:301738020_0" arrivalOffset="00:30:00" departureOffset="00:00:00" awaitDeparture="true"/>
			</routeProfile>
			<route>
				<link refId="321360963_0"/>
				<link refId="143525635_0"/>
				<link refId="143525635_1"/>
				<link refId="372364566_0"/>
				<link refId="3147218_0"/>
				<link refId="143525643_0"/>
				<link refId="576484878_0"/>
				<link refId="3160924_0"/>
				<link refId="576484877_0"/>
				<link refId="143525636_0"/>
				<link refId="576484876_0"/>
				<link refId="3174656_0"/>
				<link refId="181173664_0"/>
				<link refId="243947049_0"/>
				<link refId="143525650_0"/>
				<link refId="576484875_0"/>
				<link refId="3187817_0"/>
				<link refId="583594433_0"/>
				<link refId="159746240_0"/>
				<link refId="3200980_0"/>
				<link refId="576484874_0"/>
				<link refId="245667684_0"/>
				<link refId="572418415_0_r"/>
				<link refId="143558788_0_r"/>
				<link refId="143558793_1_r"/>
				<link refId="143558793_0_r"/>
				<link refId="218475447_0_r"/>
				<link refId="143558789_0_r"/>
				<link refId="271683971_0_r"/>
				<link refId="245456247_0_r"/>
				<link refId="245456248_0"/>
				<link refId="245456248_1"/>
				<link refId="338078590_0"/>
				<link refId="219157542_0"/>
				<link refId="4454822_0_r"/>
				<link refId="143558786_0_r"/>
				<link refId="137007066_0"/>
				<link refId="143558785_0"/>
				<link refId="143558785_1"/>
				<link refId="309699007_0"/>
				<link refId="309699008_0"/>
				<link refId="137047563_0"/>
				<link refId="376754067_0"/>
				<link refId="376754073_0"/>
				<link refId="376754063_0"/>
				<link refId="309699010_0"/>
				<link refId="190505822_0"/>
				<link refId="191921981_0"/>
				<link refId="190505820_0"/>
				<link refId="190505820_1"/>
				<link refId="190505820_2"/>
				<link refId="190505820_3"/>
				<link refId="190505820_4"/>
				<link refId="190505820_5"/>
				<link refId="190505820_6"/>
				<link refId="227006891_0"/>
				<link refId="227006891_1"/>
				<link refId="227006891_2"/>
				<link refId="227006891_3"/>
				<link refId="227006891_4"/>
				<link refId="459816020_0"/>
				<link refId="410372608_0"/>
				<link refId="308301794_0"/>
				<link refId="308301794_1"/>
				<link refId="308301794_2"/>
				<link refId="264573674_0"/>
				<link refId="374586995_0"/>
				<link refId="374586995_1"/>
				<link refId="374586995_2"/>
				<link refId="374586995_3"/>
				<link refId="31378364_0"/>
				<link refId="31378364_1"/>
				<link refId="31378364_2"/>
				<link refId="724927_0"/>
				<link refId="386927712_0_r"/>
				<link refId="142647140_0"/>
				<link refId="392286932_0"/>
				<link refId="392286932_1"/>
				<link refId="118837198_1_r"/>
				<link refId="118837198_0_r"/>
				<link refId="178568775_0_r"/>
				<link refId="181364110_0_r"/>
				<link refId="31387471_0_r"/>
				<link refId="178568772_0"/>
				<link refId="441355165_0"/>
				<link refId="31402282_0"/>
				<link refId="299168659_0"/>
				<link refId="325795953_0"/>
				<link refId="544989443_0"/>
				<link refId="178568773_0"/>
				<link refId="143525644_0"/>
				<link refId="143525638_0"/>
				<link refId="143519876_0"/>
				<link refId="143525634_0"/>
				<link refId="325795952_0"/>
				<link refId="31368931_0"/>
				<link refId="511111435_0"/>
				<link refId="468646555_1"/>
				<link refId="143818841_0"/>
				<link refId="160338253_0"/>
				<link refId="160338253_1"/>
				<link refId="143519861_0"/>
				<link refId="143519861_1"/>
				<link refId="143519870_0"/>
				<link refId="544989444_0"/>
				<link refId="143519871_0"/>
				<link refId="143519875_0"/>
				<link refId="244963_0"/>
				<link refId="143525638_0"/>
				<link refId="143519876_0"/>
				<link refId="143525634_0"/>
				<link refId="325795952_0"/>
				<link refId="31368931_0"/>
				<link refId="143818842_0"/>
				<link refId="143818842_1"/>
				<link refId="143818842_2"/>
				<link refId="239914944_0"/>
				<link refId="145069796_0"/>
				<link refId="143818835_0"/>
				<link refId="301738020_0"/>
			</route>
			<departures>
				<departure id="23221196_04:00:00" departureTime="04:00:00" vehicleRefId="veh_165_bus"/>
				<departure id="23221202_04:30:00" departureTime="04:30:00" vehicleRefId="veh_166_bus"/>
				<departure id="23221207_03:30:00" departureTime="03:30:00" vehicleRefId="veh_167_bus"/>
			</departures>
		</transitRoute>
		<transitRoute id="23221201">
			<description>shapeId:track-69630</description>
			<transportMode>bus</transportMode>
			<routeProfile>
				<stop refId="2089.link:327368250_0" arrivalOffset="00:00:00" departureOffset="00:00:00" awaitDeparture="true"/>
				<stop refId="3277.link:143874144_0" arrivalOffset="00:35:00" departureOffset="00:35:00" awaitDeparture="true"/>
				<stop refId="1568.link:143818834_0" arrivalOffset="00:36:00" departureOffset="00:36:00" awaitDeparture="true"/>
				<stop refId="1806.link:468646555_0" arrivalOffset="00:38:00" departureOffset="00:38:00" awaitDeparture="true"/>
				<stop refId="2119.link:160338253_1" arrivalOffset="00:39:00" departureOffset="00:39:00" awaitDeparture="true"/>
				<stop refId="2891.link:31380964_0" arrivalOffset="00:41:00" departureOffset="00:41:00" awaitDeparture="true"/>
				<stop refId="2833.link:31389889_0" arrivalOffset="00:42:00" departureOffset="00:42:00" awaitDeparture="true"/>
				<stop refId="3266.link:31402714_1" arrivalOffset="00:44:00" departureOffset="00:44:00" awaitDeparture="true"/>
				<stop refId="23964.link:142024591_0" arrivalOffset="00:47:00" departureOffset="00:47:00" awaitDeparture="true"/>
				<stop refId="23965.link:142024591_2" arrivalOffset="00:48:00" departureOffset="00:48:00" awaitDeparture="true"/>
				<stop refId="2098.link:410372607_0" arrivalOffset="00:50:00" departureOffset="00:50:00" awaitDeparture="true"/>
				<stop refId="23966.link:218508360_8" arrivalOffset="00:52:00" departureOffset="00:52:00" awaitDeparture="true"/>
				<stop refId="24379.link:364669653_0" arrivalOffset="00:53:00" departureOffset="00:53:00" awaitDeparture="true"/>
				<stop refId="1694.link:366320482_0" arrivalOffset="00:55:00" departureOffset="00:55:00" awaitDeparture="true"/>
				<stop refId="3289.link:245456247_0" arrivalOffset="00:56:00" departureOffset="00:56:00" awaitDeparture="true"/>
				<stop refId="4977.link:245587194_0" arrivalOffset="00:58:00" departureOffset="00:58:00" awaitDeparture="true"/>
				<stop refId="4978.link:338078585_1" arrivalOffset="00:59:00" departureOffset="00:59:00" awaitDeparture="true"/>
				<stop refId="4302.link:321360963_0" arrivalOffset="01:00:00" departureOffset="00:00:00" awaitDeparture="true"/>
			</routeProfile>
			<route>
				<link refId="327368250_0"/>
				<link refId="pt_327368250_0_190982119_0"/>
				<link refId="190982119_0"/>
				<link refId="240947_0"/>
				<link refId="143874144_0"/>
				<link refId="143818834_0"/>
				<link refId="143818834_1"/>
				<link refId="143818840_0"/>
				<link refId="468646555_0"/>
				<link refId="468646555_1"/>
				<link refId="143818841_0"/>
				<link refId="160338253_0"/>
				<link refId="160338253_1"/>
				<link refId="143519861_0"/>
				<link refId="143519861_1"/>
				<link refId="143519870_0"/>
				<link refId="544989444_0"/>
				<link refId="143519871_0"/>
				<link refId="143519868_0"/>
				<link refId="143519862_0"/>
				<link refId="31386249_0"/>
				<link refId="31380964_0"/>
				<link refId="31380964_1"/>
				<link refId="299168657_0"/>
				<link refId="31389889_0"/>
				<link refId="31402714_0"/>
				<link refId="31402714_1"/>
				<link refId="178568775_0"/>
				<link refId="118837198_0"/>
				<link refId="118837198_1"/>
				<link refId="142647137_0"/>
				<link refId="142647128_0"/>
				<link refId="142647128_1"/>
				<link refId="392286917_0"/>
				<link refId="392286920_0"/>
				<link refId="211779017_0"/>
				<link refId="142024591_0"/>
				<link refId="142024591_1"/>
				<link refId="142024591_2"/>
				<link refId="142024591_3"/>
				<link refId="142019272_0"/>
				<link refId="459816011_0"/>
				<link refId="142019274_0"/>
				<link refId="459816013_0"/>
				<link refId="410372607_0"/>
				<link refId="459816017_0"/>
				<link refId="459816016_0"/>
				<link refId="218508360_0"/>
				<link refId="218508360_1"/>
				<link refId="218508360_2"/>
				<link refId="218508360_3"/>
				<link refId="218508360_4"/>
				<link refId="218508360_5"/>
				<link refId="218508360_6"/>
				<link refId="218508360_7"/>
				<link refId="218508360_8"/>
				<link refId="218508360_9"/>
				<link refId="343205673_0"/>
				<link refId="223634450_0"/>
				<link refId="364669653_0"/>
				<link refId="137047562_0"/>
				<link refId="376754062_0"/>
				<link refId="376754065_0"/>
				<link refId="376754072_0"/>
				<link refId="137047555_0"/>
				<link refId="366320482_0"/>
				<link refId="143558795_0"/>
				<link refId="143558795_1"/>
				<link refId="245456247_0"/>
				<link refId="271683971_0"/>
				<link refId="143558789_0"/>
				<link refId="218475423_0"/>
				<link refId="218475423_1"/>
				<link refId="218475423_2"/>
				<link refId="218475423_3"/>
				<link refId="218475423_4"/>
				<link refId="218475423_5"/>
				<link refId="450106500_0"/>
				<link refId="450106500_1"/>
				<link refId="245587196_0"/>
				<link refId="415624709_0"/>
				<link refId="415624709_1"/>
				<link refId="245587194_0"/>
				<link refId="245587194_1"/>
				<link refId="245587194_2"/>
				<link refId="373367258_0"/>
				<link refId="357733837_0"/>
				<link refId="218475427_0"/>
				<link refId="338078585_0"/>
				<link refId="338078585_1"/>
				<link refId="218475412_0"/>
				<link refId="218475412_1"/>
				<link refId="321360963_0"/>
			</route>
			<departures>
				<departure id="23221195_03:33:00" departureTime="03:33:00" vehicleRefId="veh_158_bus"/>
				<departure id="23221197_05:03:00" departureTime="05:03:00" vehicleRefId="veh_159_bus"/>
				<departure id="23221201_04:03:00" departureTime="04:03:00" vehicleRefId="veh_160_bus"/>
				<departure id="23221203_05:33:00" departureTime="05:33:00" vehicleRefId="veh_161_bus"/>
				<departure id="23221206_03:03:00" departureTime="03:03:00" vehicleRefId="veh_162_bus"/>
				<departure id="23221208_04:33:00" departureTime="04:33:00" vehicleRefId="veh_163_bus"/>
			</departures>
		</transitRoute>
		<transitRoute id="23221200">
			<description>shapeId:track-69631</description>
			<transportMode>bus</transportMode>
			<routeProfile>
				<stop refId="4302.link:321360963_0" arrivalOffset="00:00:00" departureOffset="00:00:00" awaitDeparture="true"/>
				<stop refId="3271.link:143525636_0" arrivalOffset="00:02:00" departureOffset="00:02:00" awaitDeparture="true"/>
				<stop refId="2063.link:159746240_0" arrivalOffset="00:03:00" departureOffset="00:03:00" awaitDeparture="true"/>
				<stop refId="2916.link:572418415_0_r" arrivalOffset="00:04:00" departureOffset="00:04:00" awaitDeparture="true"/>
				<stop refId="4112.link:143558793_1_r" arrivalOffset="00:05:00" departureOffset="00:05:00" awaitDeparture="true"/>
				<stop refId="2562.link:218475447_0_r" arrivalOffset="00:06:00" departureOffset="00:06:00" awaitDeparture="true"/>
				<stop refId="2100.link:245456247_0_r" arrivalOffset="00:07:00" departureOffset="00:07:00" awaitDeparture="true"/>
				<stop refId="1695.link:143558785_1" arrivalOffset="00:08:00" departureOffset="00:08:00" awaitDeparture="true"/>
				<stop refId="1709.link:376754063_0" arrivalOffset="00:10:00" departureOffset="00:10:00" awaitDeparture="true"/>
				<stop refId="23958.link:190505820_6" arrivalOffset="00:13:00" departureOffset="00:13:00" awaitDeparture="true"/>
				<stop refId="3287.link:308301794_1" arrivalOffset="00:14:00" departureOffset="00:14:00" awaitDeparture="true"/>
				<stop refId="23991.link:178568772_0" arrivalOffset="00:21:00" departureOffset="00:21:00" awaitDeparture="true"/>
				<stop refId="1625.link:441355165_0" arrivalOffset="00:23:00" departureOffset="00:23:00" awaitDeparture="true"/>
				<stop refId="1691.link:299168659_0" arrivalOffset="00:24:00" departureOffset="00:24:00" awaitDeparture="true"/>
				<stop refId="3308.link:160338253_1" arrivalOffset="00:26:00" departureOffset="00:26:00" awaitDeparture="true"/>
				<stop refId="2992.link:143818842_0" arrivalOffset="00:27:00" departureOffset="00:27:00" awaitDeparture="true"/>
				<stop refId="2774.link:143818842_2" arrivalOffset="00:28:00" departureOffset="00:28:00" awaitDeparture="true"/>
				<stop refId="2089.link:301738020_0" arrivalOffset="00:29:00" departureOffset="00:00:00" awaitDeparture="true"/>
			</routeProfile>
			<route>
				<link refId="321360963_0"/>
				<link refId="143525635_0"/>
				<link refId="143525635_1"/>
				<link refId="372364566_0"/>
				<link refId="3147218_0"/>
				<link refId="143525643_0"/>
				<link refId="576484878_0"/>
				<link refId="3160924_0"/>
				<link refId="576484877_0"/>
				<link refId="143525636_0"/>
				<link refId="576484876_0"/>
				<link refId="3174656_0"/>
				<link refId="181173664_0"/>
				<link refId="243947049_0"/>
				<link refId="143525650_0"/>
				<link refId="576484875_0"/>
				<link refId="3187817_0"/>
				<link refId="583594433_0"/>
				<link refId="159746240_0"/>
				<link refId="3200980_0"/>
				<link refId="576484874_0"/>
				<link refId="245667684_0"/>
				<link refId="572418415_0_r"/>
				<link refId="143558788_0_r"/>
				<link refId="143558793_1_r"/>
				<link refId="143558793_0_r"/>
				<link refId="218475447_0_r"/>
				<link refId="143558789_0_r"/>
				<link refId="271683971_0_r"/>
				<link refId="245456247_0_r"/>
				<link refId="245456248_0"/>
				<link refId="245456248_1"/>
				<link refId="338078590_0"/>
				<link refId="219157542_0"/>
				<link refId="4454822_0_r"/>
				<link refId="143558786_0_r"/>
				<link refId="137007066_0"/>
				<link refId="143558785_0"/>
				<link refId="143558785_1"/>
				<link refId="309699007_0"/>
				<link refId="309699008_0"/>
				<link refId="137047563_0"/>
				<link refId="376754067_0"/>
				<link refId="376754073_0"/>
				<link refId="376754063_0"/>
				<link refId="309699010_0"/>
				<link refId="190505822_0"/>
				<link refId="191921981_0"/>
				<link refId="190505820_0"/>
				<link refId="190505820_1"/>
				<link refId="190505820_2"/>
				<link refId="190505820_3"/>
				<link refId="190505820_4"/>
				<link refId="190505820_5"/>
				<link refId="190505820_6"/>
				<link refId="227006891_0"/>
				<link refId="227006891_1"/>
				<link refId="227006891_2"/>
				<link refId="227006891_3"/>
				<link refId="227006891_4"/>
				<link refId="459816020_0"/>
				<link refId="410372608_0"/>
				<link refId="308301794_0"/>
				<link refId="308301794_1"/>
				<link refId="308301794_2"/>
				<link refId="264573674_0"/>
				<link refId="374586995_0"/>
				<link refId="374586995_1"/>
				<link refId="374586995_2"/>
				<link refId="374586995_3"/>
				<link refId="31378364_0"/>
				<link refId="31378364_1"/>
				<link refId="31378364_2"/>
				<link refId="724927_0"/>
				<link refId="386927712_0_r"/>
				<link refId="142647140_0"/>
				<link refId="392286932_0"/>
				<link refId="392286932_1"/>
				<link refId="118837198_1_r"/>
				<link refId="118837198_0_r"/>
				<link refId="178568775_0_r"/>
				<link refId="181364110_0_r"/>
				<link refId="31387471_0_r"/>
				<link refId="178568772_0"/>
				<link refId="441355165_0"/>
				<link refId="31402282_0"/>
				<link refId="299168659_0"/>
				<link refId="325795953_0"/>
				<link refId="544989443_0"/>
				<link refId="178568773_0"/>
				<link refId="143525644_0"/>
				<link refId="143525638_0"/>
				<link refId="143519876_0"/>
				<link refId="143525634_0"/>
				<link refId="325795952_0"/>
				<link refId="31368931_0"/>
				<link refId="511111435_0"/>
				<link refId="468646555_1"/>
				<link refId="143818841_0"/>
				<link refId="160338253_0"/>
				<link refId="160338253_1"/>
				<link refId="143519861_0"/>
				<link refId="143519861_1"/>
				<link refId="143519870_0"/>
				<link refId="544989444_0"/>
				<link refId="143519871_0"/>
				<link refId="143519875_0"/>
				<link refId="244963_0"/>
				<link refId="143525638_0"/>
				<link refId="143519876_0"/>
				<link refId="143525634_0"/>
				<link refId="325795952_0"/>
				<link refId="31368931_0"/>
				<link refId="143818842_0"/>
				<link refId="143818842_1"/>
				<link refId="143818842_2"/>
				<link refId="239914944_0"/>
				<link refId="145069796_0"/>
				<link refId="143818835_0"/>
				<link refId="301738020_0"/>
			</route>
			<departures>
				<departure id="23221194_02:30:00" departureTime="02:30:00" vehicleRefId="veh_156_bus"/>
				<departure id="23221200_03:00:00" departureTime="03:00:00" vehicleRefId="veh_157_bus"/>
			</departures>
		</transitRoute>
	</transitLine>
</transitSchedule>