<?xml version="1.0" encoding="UTF-8"?>
<!DOCTYPE transitSchedule SYSTEM "http://www.matsim.org/files/dtd/transitSchedule_v2.dtd">

<transitSchedule>
	<attributes>
		<attribute name="coordinateReferenceSystem" class="java.lang.String">EPSG:32635</attribute>
	</attributes>

	<transitStops>
		<stopFacility id="000875de-db2c-4613-9103-283ba13e7517" x="681218.4956793681" y="6654124.5538398" linkRefId="165752390_0" isBlocking="false"/>
		<stopFacility id="0014aedd-96e8-4f81-995d-c5251b4efa5b" x="691045.3157176583" y="6644477.964536756" linkRefId="78610075_0" isBlocking="false"/>
		<stopFacility id="0017c76c-15e8-40ce-aad7-2d808e2af94b" x="684002.4699422994" y="6649109.960346915" linkRefId="362775821_0" isBlocking="false"/>
		<stopFacility id="00185a3e-f6c6-4a17-a2a5-8e7c8b5d9241" x="686477.1757042406" y="6639813.914854029" linkRefId="31387087_2" isBlocking="false"/>
		<stopFacility id="001a76e8-fd68-49a3-a72b-765a70dd2884" x="689430.5965334668" y="6657800.754130406" linkRefId="509508056_0" isBlocking="false"/>
		<stopFacility id="00297c41-e5e6-40d1-8a44-970f4f12722f" x="681556.6372331695" y="6654824.080430082" linkRefId="528751518_0" isBlocking="false"/>
		<stopFacility id="0031b518-e0af-4c66-888b-ac7cd4942a7b" x="696875.3584986398" y="6639641.583611238" linkRefId="31402724_0" isBlocking="false"/>
		<stopFacility id="00334d81-1013-4770-98b1-78683590ff7e" x="694678.4931161177" y="6621270.365534766" linkRefId="1892739_0" isBlocking="false"/>
		<stopFacility id="00362388-b120-4dd6-ace5-3be4854b3782" x="673445.1229078652" y="6630837.148488417" linkRefId="297875211_0" isBlocking="false"/>
		<stopFacility id="003f18c3-0c9f-4583-9c0e-74b5097478cc" x="675102.6825584861" y="6638652.23921675" linkRefId="200580509_0" isBlocking="false"/>
		<stopFacility id="004056d5-143f-4ccd-9014-5302df5d385b" x="702037.5683722772" y="6633526.95046125" linkRefId="1903661_1" isBlocking="false"/>
		<stopFacility id="00410f05-4a8f-45e3-9f47-a55ce6ee6c5f" x="610774.2597380016" y="6679105.287262195" linkRefId="448036765_0" isBlocking="false"/>
		<stopFacility id="0048e24b-a66c-4339-97c4-cdc60fd400d6" x="692426.4834171488" y="6642227.154548802" linkRefId="238919_0" isBlocking="false"/>
		<stopFacility id="00495976-0f9d-4c8c-9e71-3ee7fcc3bf6e" x="718496.6495561306" y="6648273.152819161" linkRefId="31395817_0" isBlocking="false"/>
		<stopFacility id="0053cd42-b93d-4bc8-bb08-177fcc8ac75e" x="688087.683436218" y="6645605.920478665" linkRefId="159265384_0" isBlocking="false"/>
		<stopFacility id="005bff2d-5db1-4a15-ad0b-772af2a6ad8d" x="678458.8884039419" y="6639049.81894638" linkRefId="277694329_2" isBlocking="false"/>
		<stopFacility id="005cd4e2-216d-41ab-8bf3-138f05fa0f64" x="690238.5764781644" y="6652846.175181751" linkRefId="195761802_0" isBlocking="false"/>
		<stopFacility id="005ede0f-1311-46a4-b961-8bd96563bc80" x="703861.7220176088" y="6629938.054148793" linkRefId="1885987_0" isBlocking="false"/>
		<stopFacility id="00672cba-1c9f-41f0-a067-c0d2d436e2d3" x="682707.5304900502" y="6649998.203850463" linkRefId="416024658_0" isBlocking="false"/>
		<stopFacility id="006e80b2-4910-4c1e-ba42-aa5b0f511656" x="690656.6406900752" y="6649990.825970819" linkRefId="337186683_0" isBlocking="false"/>
		<stopFacility id="00718eb9-24d1-4ec4-b6ac-321ea795463e" x="688866.8787004828" y="6641141.078960487" linkRefId="308301785_9" isBlocking="false"/>
		<stopFacility id="00797ec2-eca7-4e08-86bb-cd73759c7672" x="702802.4709119309" y="6625932.406788027" linkRefId="217274973_0" isBlocking="false"/>
		<stopFacility id="007baccb-927f-4dae-9960-811f28afaae3" x="681172.0185953306" y="6650901.148953846" linkRefId="235035_0" isBlocking="false"/>
		<stopFacility id="007bbb52-52b4-4a6b-9700-cb0b31c24105" x="625397.5189025354" y="6672220.254854882" linkRefId="448036765_0" isBlocking="false"/>
		<stopFacility id="007d1dd8-1e8b-4c33-b9e5-80858791d699" x="659190.2381598589" y="6616641.037109571" linkRefId="290814109_0" isBlocking="false"/>
		<stopFacility id="008099f1-76be-401a-8c63-f3edfe3e4638" x="689580.4793755197" y="6659412.76798826" linkRefId="194972651_0" isBlocking="false"/>
		<stopFacility id="008bd11e-d22f-4f68-914d-4261df5527c9" x="691942.7268765888" y="6651399.489723124" linkRefId="8146255_0" isBlocking="false"/>
		<stopFacility id="008dfd48-db54-45d6-8935-a5d4098204a8" x="692372.8858332118" y="6624763.040919117" linkRefId="193997410_0" isBlocking="false"/>
		<stopFacility id="00913c7e-c68a-4eef-822e-cf87059dbaa8" x="688907.6385645426" y="6659658.532626166" linkRefId="31401691_0" isBlocking="false"/>
		<stopFacility id="009222b4-56d7-4383-b2ee-cf36a2d1403a" x="683453.6294754653" y="6656423.379240839" linkRefId="86146454_0" isBlocking="false"/>
		<stopFacility id="00950a6d-c9cb-4a8d-a542-e2f5b610014b" x="685575.1118520908" y="6648064.159881591" linkRefId="245456247_0" isBlocking="false"/>
		<stopFacility id="00969a11-ef01-4792-bf9c-6566c1eb9790" x="665911.3528544124" y="6659564.443177705" linkRefId="104073_0" isBlocking="false"/>
		<stopFacility id="0097047e-6ed1-4e5d-8960-33751e2352aa" x="678561.0093832234" y="6656872.921026794" linkRefId="233383_0" isBlocking="false"/>
		<stopFacility id="00977519-8877-4b08-b765-e4edd7cf1315" x="684262.220347975" y="6662039.759257539" linkRefId="164842134_0" isBlocking="false"/>
		<stopFacility id="00a3877d-0726-4482-a524-c0c81650f813" x="682330.4513786016" y="6649098.675155345" linkRefId="374288778_2" isBlocking="false"/>
		<stopFacility id="00a57c36-2bf2-4e0d-96ef-4e3686bf741f" x="673078.1706427628" y="6635803.035581399" linkRefId="330499329_0" isBlocking="false"/>
		<stopFacility id="00a8aaee-6fa4-46ff-83d5-2d54da3b3b30" x="695415.9010627444" y="6654323.36017197" linkRefId="118656355_0" isBlocking="false"/>
		<stopFacility id="00b8ca88-18c7-41a4-a65d-09f12d4945e2" x="686993.2181224958" y="6662329.128587569" linkRefId="179534901_0" isBlocking="false"/>
		<stopFacility id="00bd861e-42ff-4a30-b496-32e645c548cb" x="679779.9531280091" y="6639548.312905403" linkRefId="251069229_0" isBlocking="false"/>
		<stopFacility id="00be18a2-e83d-4578-8641-f4059b91c756" x="691231.0351891937" y="6654689.583452598" linkRefId="31647022_0" isBlocking="false"/>
		<stopFacility id="00be7dfa-bd24-4f17-9d51-da51de88abed" x="679370.0537587329" y="6640270.864388802" linkRefId="80963212_1" isBlocking="false"/>
		<stopFacility id="00c108e9-8537-4402-8a64-fd392538fa06" x="690202.3702424068" y="6641481.050909757" linkRefId="366740262_6" isBlocking="false"/>
		<stopFacility id="00c15bb1-e922-4356-b1bd-8169f3c67139" x="684575.0791289274" y="6649819.216587189" linkRefId="308301781_1" isBlocking="false"/>
		<stopFacility id="00c3fc1e-9e69-4891-89c6-9619306fc7b6" x="693547.7465173779" y="6650050.0568163665" linkRefId="172371604_0" isBlocking="false"/>
		<stopFacility id="00c5fa3b-7cc9-4dc8-8f8b-6e428d04ea72" x="693624.7823776995" y="6622823.398365498" linkRefId="123377130_0" isBlocking="false"/>
		<stopFacility id="00c7c403-d0c3-40d3-924c-4feb55f25066" x="676850.646416122" y="6640008.248420182" linkRefId="137598571_0" isBlocking="false"/>
		<stopFacility id="00c8e024-7727-4795-9dfd-e416887b8c5e" x="689411.2866539208" y="6653968.886329056" linkRefId="31381201_2" isBlocking="false"/>
		<stopFacility id="00cbef59-e5a2-4fc1-b8f4-dacafe0f5712" x="682524.2569097811" y="6657256.348921121" linkRefId="198287612_1" isBlocking="false"/>
		<stopFacility id="00ced8e7-4064-4a5e-b5be-fdc229decb64" x="684939.081329341" y="6648542.184735698" linkRefId="148358646_1" isBlocking="false"/>
		<stopFacility id="00d18275-bc66-4a23-81e6-b1c3e044bf64" x="690247.1207665632" y="6646224.077800532" linkRefId="465767284_0" isBlocking="false"/>
		<stopFacility id="00d27832-db26-47e4-8160-06706de3fc00" x="681827.4687383563" y="6640223.747188668" linkRefId="191989932_0" isBlocking="false"/>
		<stopFacility id="00d3e7fb-4474-4c34-9322-dce262ae98bf" x="689309.8230092189" y="6648083.788518737" linkRefId="303418138_0" isBlocking="false"/>
		<stopFacility id="00d76279-f7f7-46f5-bb9b-d73148194ec4" x="685761.3774718295" y="6648879.832637515" linkRefId="143525636_0" isBlocking="false"/>
		<stopFacility id="00e21523-9c6e-46db-ac1c-ec0b5c126b5e" x="684712.1324733356" y="6651024.033423144" linkRefId="243215_0" isBlocking="false"/>
		<stopFacility id="00e77177-f6ac-45c1-9911-a7ff655c595a" x="683429.0599244508" y="6651788.768493542" linkRefId="175000668_3" isBlocking="false"/>
		<stopFacility id="00e95bac-abf3-49ee-9a35-d915ec647ec8" x="702876.4456105795" y="6629378.488567153" linkRefId="1889850_0" isBlocking="false"/>
		<stopFacility id="00eb8512-4ef3-44a8-80b7-cb781e079cd6" x="685827.8022439003" y="6642250.743774435" linkRefId="141829613_0" isBlocking="false"/>
		<stopFacility id="00eeb0d2-b04b-4fe9-b96b-7cbc8289748e" x="690820.2010975464" y="6626014.451424117" linkRefId="31365321_0" isBlocking="false"/>
		<stopFacility id="00f510a4-97a3-4738-acaa-ba950a343071" x="686389.7081434565" y="6649167.275247555" linkRefId="243405_0" isBlocking="false"/>
		<stopFacility id="00f5797a-b27b-4a55-a7fb-64e7a306ee60" x="680655.5480098785" y="6640256.786633781" linkRefId="125823942_0" isBlocking="false"/>
		<stopFacility id="00fbe100-0eb7-48c5-a656-8d2c81f122b6" x="689649.9234948014" y="6653168.298142854" linkRefId="195761785_0" isBlocking="false"/>
		<stopFacility id="00fe3933-9988-4ceb-be22-4a7b426914cc" x="665974.9778229967" y="6670023.471966527" linkRefId="4457999_0" isBlocking="false"/>
		<stopFacility id="00ff2bae-c745-48be-97be-563c68b11a47" x="691578.9401272235" y="6637781.45650644" linkRefId="215770466_0" isBlocking="false"/>
		<stopFacility id="01025a84-2e88-4e89-aea7-08a0eb088221" x="682273.0388894321" y="6657309.611677486" linkRefId="198287612_1" isBlocking="false"/>
		<stopFacility id="010424c8-8b16-4cca-b762-82619308fdd8" x="687898.7136200897" y="6661262.348935057" linkRefId="31380275_1" isBlocking="false"/>
		<stopFacility id="010c6ef9-e6da-4206-804a-37c1c0e02a57" x="689620.3847921462" y="6642262.484147079" linkRefId="366740296_0" isBlocking="false"/>
		<stopFacility id="01150285-e701-474d-870f-597ac66af2a2" x="687346.3994031623" y="6657094.729917113" linkRefId="363103044_1" isBlocking="false"/>
		<stopFacility id="011798a7-ee1a-46fc-9f20-9940e1c2d93d" x="696818.7417585136" y="6644773.845374775" linkRefId="316384752_0" isBlocking="false"/>
		<stopFacility id="011b6c17-ed20-48a9-8602-3846d6305d68" x="693174.4670428442" y="6647886.254807195" linkRefId="195820152_0" isBlocking="false"/>
		<stopFacility id="0122dd95-6483-43f9-838d-6a81d0752e65" x="688879.915976685" y="6659238.188671982" linkRefId="486776_0" isBlocking="false"/>
		<stopFacility id="0123b3c9-ff11-4e70-bac3-8bacc0b1638a" x="692188.7272254266" y="6625881.538225666" linkRefId="1891285_0" isBlocking="false"/>
		<stopFacility id="012757c1-db43-4caa-9be3-a428826be648" x="690553.9006924581" y="6653407.110020503" linkRefId="346569143_0" isBlocking="false"/>
		<stopFacility id="013576ac-281e-447d-978d-4a85646f4b94" x="686076.0653542484" y="6650048.368664324" linkRefId="143681906_0" isBlocking="false"/>
		<stopFacility id="013c1c61-d64d-4211-bbba-b3a325ce3b0d" x="691148.9483991645" y="6645891.706625342" linkRefId="477866077_0" isBlocking="false"/>
		<stopFacility id="0142a867-de5e-42ad-9cb2-c890f6f57ce4" x="684528.4513239875" y="6652873.317032055" linkRefId="156494617_0" isBlocking="false"/>
		<stopFacility id="014be250-a5d4-4ae5-926a-cb5c0acaddce" x="688866.8787004828" y="6641141.078960487" linkRefId="308301785_9" isBlocking="false"/>
		<stopFacility id="014c7ef8-ce5e-4fd4-8d2a-206f82bd1d66" x="675596.3425536801" y="6669413.741148637" linkRefId="192501707_0" isBlocking="false"/>
		<stopFacility id="014f10b3-da9f-4960-901a-fe88a0b20189" x="684081.9087039772" y="6662507.177323398" linkRefId="233961980_3" isBlocking="false"/>
		<stopFacility id="015697c9-077c-4d32-8d9e-ee70233ae675" x="695048.8402565754" y="6648051.305244711" linkRefId="192901702_0" isBlocking="false"/>
		<stopFacility id="015a3b91-cd78-4105-8101-a68df1decc1d" x="692690.925031866" y="6652559.4094554745" linkRefId="31397173_0" isBlocking="false"/>
		<stopFacility id="0163ed94-45c0-417c-8890-425db4e2cf69" x="679832.8863377784" y="6656342.487816599" linkRefId="231399_0" isBlocking="false"/>
		<stopFacility id="016bdf9f-33a1-4864-a617-1107bdeaaeae" x="689551.491375899" y="6661491.965621147" linkRefId="242383_0" isBlocking="false"/>
		<stopFacility id="016d8021-f080-4c1f-baff-67fe96fb9b4d" x="690459.9828305718" y="6657271.470662514" linkRefId="77909115_0" isBlocking="false"/>
		<stopFacility id="016db7f1-d7d8-4e5b-94ee-2cc5ebbd6eff" x="690179.0555045139" y="6642628.716425715" linkRefId="172296532_0" isBlocking="false"/>
		<stopFacility id="016dba9f-4575-4d9c-857c-4dad9c0dc64b" x="685799.554567044" y="6642735.474181057" linkRefId="308301799_0" isBlocking="false"/>
		<stopFacility id="016efdfb-191b-43ec-afc5-588fa90e7efe" x="688323.2794862491" y="6637527.1786087565" linkRefId="199621879_0" isBlocking="false"/>
		<stopFacility id="01705df7-1d49-466f-ac07-a290b3b6e3ab" x="691503.5566096706" y="6651921.238156002" linkRefId="183889992_0" isBlocking="false"/>
		<stopFacility id="01756deb-15a5-4d8b-86d7-b819e270cc8c" x="694239.1989009688" y="6650474.407184287" linkRefId="337186682_0" isBlocking="false"/>
		<stopFacility id="018039f9-29f3-4afa-94ce-7dc05e215080" x="688891.3473329108" y="6652974.753047248" linkRefId="34544560_1" isBlocking="false"/>
		<stopFacility id="01809059-9989-4991-8cea-33aaa64036a9" x="690820.2010975464" y="6626014.451424117" linkRefId="31365321_0" isBlocking="false"/>
		<stopFacility id="018986dc-e15c-4893-8605-8702bc8117ca" x="683501.2023460596" y="6649849.480651945" linkRefId="197511870_2" isBlocking="false"/>
		<stopFacility id="019244c9-623f-425d-b245-ed89e5da7384" x="682817.3929638092" y="6642461.550504274" linkRefId="31366375_0" isBlocking="false"/>
		<stopFacility id="019c4153-f921-413f-adc5-c681c1eb8144" x="657777.2085985912" y="6643741.509200203" linkRefId="192265924_0" isBlocking="false"/>
		<stopFacility id="01a28a4f-648a-4b55-bdd0-a03007f05605" x="621442.8217904454" y="6690275.5813462" linkRefId="411778418_0" isBlocking="false"/>
		<stopFacility id="01a64a22-aa59-4fdc-a2c8-93d8020024d4" x="689369.5701151007" y="6652406.871178823" linkRefId="516999319_0" isBlocking="false"/>
		<stopFacility id="01a7e43a-2486-4392-866f-f01fe77328da" x="695291.2151079938" y="6651422.381999573" linkRefId="511098915_0" isBlocking="false"/>
		<stopFacility id="01a926d1-6232-47cd-a59c-f57ddc8dafff" x="690059.4562959862" y="6637684.887393277" linkRefId="181395511_0" isBlocking="false"/>
		<stopFacility id="01abd719-ec5d-4cd5-8029-eff50e196a60" x="684635.9140241212" y="6663230.843403418" linkRefId="85104151_0" isBlocking="false"/>
		<stopFacility id="01adff54-539f-41a1-8659-ad938d9f9518" x="682967.6476128784" y="6656178.790056774" linkRefId="198463073_0" isBlocking="false"/>
		<stopFacility id="01aeb69a-b3b3-4ab5-b0f4-76258da33d05" x="689952.3147337125" y="6646546.623238047" linkRefId="223469969_0" isBlocking="false"/>
		<stopFacility id="01b5aee7-e2b3-4b05-b27c-b38b675f20f2" x="685918.4491377466" y="6641148.464681565" linkRefId="315571277_0" isBlocking="false"/>
		<stopFacility id="01b8712e-e290-4c84-a118-71eceb14351a" x="675583.1231066624" y="6638646.962549526" linkRefId="31387170_0" isBlocking="false"/>
		<stopFacility id="01bf9c41-eecb-4722-a089-214144159877" x="691645.142091983" y="6651912.856609905" linkRefId="183889994_0" isBlocking="false"/>
		<stopFacility id="01c354d8-633f-46ed-8afd-1e3191c34d4a" x="687527.1492911123" y="6656154.327966055" linkRefId="312230_0" isBlocking="false"/>
		<stopFacility id="01c5e478-6e72-438c-802d-b4a5279e51a3" x="647378.8810680486" y="6626064.369862931" linkRefId="184911428_0" isBlocking="false"/>
		<stopFacility id="01c9f8a2-c283-462e-9a40-f8b796fd7020" x="686802.7261078068" y="6641590.078908093" linkRefId="31374698_0" isBlocking="false"/>
		<stopFacility id="01caa070-e078-48c2-9358-d302da816110" x="683818.5232769238" y="6620272.481633754" linkRefId="1886351_0" isBlocking="false"/>
		<stopFacility id="01caedf9-3f2c-460a-80f5-c958d463bf68" x="678048.31903846" y="6655335.609821055" linkRefId="233867_0" isBlocking="false"/>
		<stopFacility id="01d14834-24d1-4243-8017-8f56e262602f" x="690433.8274591477" y="6645859.169334331" linkRefId="366014219_0" isBlocking="false"/>
		<stopFacility id="01d1e187-f2b7-4928-bf0f-39ed06873137" x="695300.2465930139" y="6644615.956412879" linkRefId="31387381_0" isBlocking="false"/>
		<stopFacility id="01d5b5e7-3e52-4d26-bee8-ac64a22d80b2" x="636390.1415460042" y="6674007.51047474" linkRefId="122493803_0" isBlocking="false"/>
		<stopFacility id="01dce2dd-a99a-40bb-b5b9-e55c203199b5" x="687570.9528197674" y="6659035.372818044" linkRefId="136189736_0" isBlocking="false"/>
		<stopFacility id="01ddf079-c4d6-406f-a018-917f576ca335" x="687618.0172548891" y="6644695.188573111" linkRefId="313874462_1" isBlocking="false"/>
		<stopFacility id="01de0665-f3a0-4504-aba7-2311ce1e51d8" x="651673.5932993025" y="6655414.47275016" linkRefId="236433_0" isBlocking="false"/>
		<stopFacility id="01e73fb1-d2c8-481e-89e5-b6bef59b36f7" x="691443.7752641022" y="6644797.439470217" linkRefId="78610075_1" isBlocking="false"/>
		<stopFacility id="01eaa4db-1e27-4f19-b2d8-88d3667b74f7" x="689630.2730310068" y="6638555.400103993" linkRefId="181395493_0" isBlocking="false"/>
		<stopFacility id="01ecceaf-a105-4db2-a58c-ba4dcca6964f" x="688665.2109109143" y="6648762.91447501" linkRefId="183751702_0" isBlocking="false"/>
		<stopFacility id="01edcfdb-5229-48c7-bb39-a3773ae18bd2" x="664209.3569051424" y="6666562.403616762" linkRefId="172864181_0" isBlocking="false"/>
		<stopFacility id="01ee089d-32a5-4d4a-b5db-931e2fcddb25" x="685940.2674389975" y="6651732.03870537" linkRefId="270565502_0" isBlocking="false"/>
		<stopFacility id="01f47401-8943-4263-aac5-b86e9a0d71cc" x="683347.9283391681" y="6661620.577942662" linkRefId="471561327_0" isBlocking="false"/>
		<stopFacility id="01f4fd1f-c262-4191-afff-7604363323ec" x="682016.5344396416" y="6642156.734363522" linkRefId="177920751_0" isBlocking="false"/>
		<stopFacility id="01fbc1ab-b077-41bb-8c2c-5d345cf9e2b5" x="653693.8002825218" y="6653848.905736492" linkRefId="74948744_0" isBlocking="false"/>
		<stopFacility id="01fe4ec8-6d72-48c2-8c2a-afc12dfbcd47" x="683507.3874419297" y="6645793.5063110655" linkRefId="397404691_1" isBlocking="false"/>
		<stopFacility id="01ff8179-2957-470d-a71b-b9c555d319a8" x="689700.9607239044" y="6639415.572541292" linkRefId="392708752_0" isBlocking="false"/>
		<stopFacility id="0200e46f-32bd-4f23-af16-4bad2dcc87af" x="680926.2079109433" y="6655656.457276802" linkRefId="326339901_0" isBlocking="false"/>
		<stopFacility id="0205631c-8493-4c0e-ba44-2b0b8f0dc310" x="674605.3019214671" y="6675427.083107622" linkRefId="31375990_0" isBlocking="false"/>
		<stopFacility id="02071d53-7874-43c3-8eff-ed9b210e499a" x="688444.0515236243" y="6643242.836204051" linkRefId="218345055_0" isBlocking="false"/>
		<stopFacility id="02120f95-2c9c-4607-b646-d61049addd12" x="688910.2235544506" y="6652693.467997378" linkRefId="333585017_0" isBlocking="false"/>
		<stopFacility id="02194c50-2d92-41e5-b582-a76f157cb0eb" x="691028.8667822513" y="6657461.586728505" linkRefId="126211617_0" isBlocking="false"/>
		<stopFacility id="0219538d-6d41-4206-a514-558f4cfa3100" x="685621.171114202" y="6644715.515551912" linkRefId="318767351_0" isBlocking="false"/>
		<stopFacility id="02202061-ff14-40a0-a622-ae61a9a5fd93" x="682061.9568380382" y="6648924.917219469" linkRefId="374288778_0" isBlocking="false"/>
		<stopFacility id="0221ff2b-9ed6-4b64-9ec8-7216072e320e" x="681620.8925747761" y="6656672.248428018" linkRefId="321719716_0" isBlocking="false"/>
		<stopFacility id="02331e31-1ec9-42c7-b281-8c2c50de6603" x="687765.1111048963" y="6639711.039784968" linkRefId="223158652_0" isBlocking="false"/>
		<stopFacility id="0238e5bc-afe3-4fcf-87ad-6f7c296f5457" x="683365.216222564" y="6658589.1079799365" linkRefId="242925_0" isBlocking="false"/>
		<stopFacility id="0238f72c-b1e7-4e4c-9b72-2ae7e6b748f4" x="625371.8079205798" y="6672275.326306866" linkRefId="448036765_0" isBlocking="false"/>
		<stopFacility id="023b94a5-fded-4bb8-bcae-2752eeda7dd2" x="695332.3859712916" y="6655754.693674569" linkRefId="195816798_0" isBlocking="false"/>
		<stopFacility id="024122a7-b2c1-401a-bb69-586ac586eea4" x="687032.1344798564" y="6649730.644833774" linkRefId="71406369_0" isBlocking="false"/>
		<stopFacility id="0242fd2f-d2ca-46a0-9bb0-c2d371eec9c0" x="686279.7641910873" y="6653573.998832007" linkRefId="370599075_1" isBlocking="false"/>
		<stopFacility id="0243cd66-8fc3-471d-852b-4f90fc691980" x="675139.0241432635" y="6658792.918941622" linkRefId="238691_0" isBlocking="false"/>
		<stopFacility id="0253c4e7-7817-427d-a9c5-f859e292ca6a" x="685632.2474358839" y="6656524.354886758" linkRefId="31389949_0" isBlocking="false"/>
		<stopFacility id="0257bf1c-9454-456f-bd36-3dd03562fc52" x="683999.9075262941" y="6659230.078778892" linkRefId="31399407_1" isBlocking="false"/>
		<stopFacility id="02584931-7514-4bfc-b617-fa66b5bd1a88" x="688555.3111290087" y="6644997.521813227" linkRefId="194795487_0" isBlocking="false"/>
		<stopFacility id="0259929b-8d87-4e1c-a7cf-af917cc5c308" x="684528.8348637341" y="6652861.176937529" linkRefId="156494617_0" isBlocking="false"/>
		<stopFacility id="025b1a8e-fffa-4d48-8acb-9fc6c2a038f1" x="680314.1851323302" y="6691016.740291734" linkRefId="53141688_0" isBlocking="false"/>
		<stopFacility id="025c03dd-0573-4972-9260-f594d4d17e57" x="694076.6244949867" y="6650739.0989469895" linkRefId="179411327_0" isBlocking="false"/>
		<stopFacility id="025e8a44-5881-4e02-ba30-e9ceba54a77f" x="695429.5695773298" y="6646415.54797654" linkRefId="144880915_3" isBlocking="false"/>
		<stopFacility id="025fadfc-b6fd-4d70-b1fa-52ba6dc92925" x="647547.8251212384" y="6627281.514917883" linkRefId="498490537_0" isBlocking="false"/>
		<stopFacility id="02689160-64ad-4899-811a-db167f51c34a" x="690289.1798495252" y="6646810.162894343" linkRefId="223469955_0" isBlocking="false"/>
		<stopFacility id="0269e22c-30e7-4279-b439-fcf947f43862" x="690067.0624840275" y="6642638.473498176" linkRefId="195843536_0" isBlocking="false"/>
		<stopFacility id="027125c6-219c-450d-8892-d315340ba9ad" x="684572.0986118008" y="6648642.080620119" linkRefId="146724998_0" isBlocking="false"/>
		<stopFacility id="0276ac22-c79b-4a53-8c40-60954cac7c89" x="684846.5682582991" y="6692739.914404547" linkRefId="129098602_0" isBlocking="false"/>
		<stopFacility id="027de85a-4d02-4b1a-a4cf-37525d9f08f4" x="680203.8295641469" y="6648723.503175415" linkRefId="31374463_0" isBlocking="false"/>
		<stopFacility id="02823553-0076-46cd-8fb1-d982b08c2b46" x="684878.5942754041" y="6648072.645057553" linkRefId="283767121_1" isBlocking="false"/>
		<stopFacility id="028420c0-22ba-404b-a5ff-14dcdedb3ddc" x="679840.9271474686" y="6658579.466507567" linkRefId="135508728_0" isBlocking="false"/>
		<stopFacility id="02851756-2d89-4316-9412-cc8cc31b50e0" x="679961.1503972744" y="6631427.201971598" linkRefId="448059650_0" isBlocking="false"/>
		<stopFacility id="02865e10-bb90-4644-b1ee-f0d9e96c076c" x="689958.5206952111" y="6655765.889567519" linkRefId="240889_1" isBlocking="false"/>
		<stopFacility id="028fcf55-9c8e-4eee-83f7-026c59577410" x="652272.8923009601" y="6675459.879859019" linkRefId="170333758_0" isBlocking="false"/>
		<stopFacility id="02903a85-ae3a-4efe-b08a-de8a5622e17a" x="684178.67551336" y="6651330.363672771" linkRefId="176380126_0" isBlocking="false"/>
		<stopFacility id="0291409b-80d4-49cc-91b2-bf000b84f5ad" x="685010.3611574362" y="6647535.308148546" linkRefId="218501981_2" isBlocking="false"/>
		<stopFacility id="029a5ba3-8ced-4cec-a68e-987f9041f398" x="685330.8350024135" y="6652841.027068212" linkRefId="31399188_0" isBlocking="false"/>
		<stopFacility id="029f3a69-9c43-4a8f-b1ba-4cd6cb4c8bc5" x="682704.4763209065" y="6642943.10275783" linkRefId="223470733_0" isBlocking="false"/>
		<stopFacility id="02a80120-5d6e-4840-98f9-c62832101e16" x="692317.850312307" y="6646678.603699699" linkRefId="238939_0" isBlocking="false"/>
		<stopFacility id="02a94d9e-9ab3-40e1-8139-3d1557c4a18f" x="694137.8794307546" y="6643415.435366786" linkRefId="31378000_1" isBlocking="false"/>
		<stopFacility id="02b1a613-3f0b-4c23-941b-3af0b1a655c8" x="700234.9619877981" y="6635182.188050792" linkRefId="1898635_4" isBlocking="false"/>
		<stopFacility id="02b26a81-79a2-473d-be1b-aaed3ea1e445" x="689550.860748919" y="6649886.158970585" linkRefId="172505123_0" isBlocking="false"/>
		<stopFacility id="02b6fbc6-806d-40ef-86fc-028e5a09766d" x="686989.2384153763" y="6656132.571009747" linkRefId="440529879_0" isBlocking="false"/>
		<stopFacility id="02ba34dd-f166-41c6-b51b-a1ce469292e4" x="678499.0376061666" y="6650056.419444226" linkRefId="269532_0" isBlocking="false"/>
		<stopFacility id="02c08bc5-a689-416c-aa15-c2dd88f2d2a1" x="679933.0560550943" y="6645177.86921201" linkRefId="186555371_0" isBlocking="false"/>
		<stopFacility id="02c2df23-b87e-40c1-83ed-f32ecfb6055c" x="685077.8734030453" y="6653237.39756425" linkRefId="194190228_0" isBlocking="false"/>
		<stopFacility id="02c50eb9-7896-41ac-9d0a-6a0efab4f642" x="681096.5786165274" y="6656794.907848757" linkRefId="360751157_0" isBlocking="false"/>
		<stopFacility id="02cd093c-1a31-429c-95d4-eab111466ff5" x="692389.1089690739" y="6636305.544980579" linkRefId="238621_0" isBlocking="false"/>
		<stopFacility id="02e462ec-5453-44f2-aeae-6b01d10ff097" x="695103.8145050154" y="6643379.747740184" linkRefId="42297188_0" isBlocking="false"/>
		<stopFacility id="02e5d313-549a-47be-ba34-093cf05e2169" x="645024.2958427641" y="6676102.011391408" linkRefId="158673500_0" isBlocking="false"/>
		<stopFacility id="02ea6613-fb7d-4a3b-bd7a-fe3474b60e2a" x="697611.2228194315" y="6634501.604525478" linkRefId="1899308_0" isBlocking="false"/>
		<stopFacility id="02edd0a7-a429-4d76-8418-b0594727f0c7" x="690613.4788522742" y="6650088.560004013" linkRefId="62252444_8" isBlocking="false"/>
		<stopFacility id="02efa807-2a92-4d89-8ab1-d4f0659e4e36" x="690035.5333667988" y="6624097.505864412" linkRefId="1899906_0" isBlocking="false"/>
		<stopFacility id="02f3ecd3-26ab-48f7-9a72-d5bd29ca66ef" x="658093.880636432" y="6641245.904697468" linkRefId="265942997_0" isBlocking="false"/>
		<stopFacility id="02f530fb-78d2-4ad3-9cff-382a83fe91d0" x="688800.1789972148" y="6661444.284411159" linkRefId="31386755_0" isBlocking="false"/>
		<stopFacility id="02f9b522-d184-489d-95b0-6b7b4a31ddab" x="686524.4681561921" y="6641824.82338444" linkRefId="395607580_0" isBlocking="false"/>
		<stopFacility id="02f9ee91-73cc-433a-bbe4-d03f72cd6ddb" x="674726.7915821308" y="6655058.549785994" linkRefId="482991858_0" isBlocking="false"/>
		<stopFacility id="030495fb-1a62-4000-a603-fcf1fdeb76d2" x="689290.8634932274" y="6653797.701732335" linkRefId="194644407_0" isBlocking="false"/>
		<stopFacility id="030899ea-a7c7-4c28-b876-898a3fe28a67" x="693872.0329391626" y="6642269.965099687" linkRefId="31387980_2" isBlocking="false"/>
		<stopFacility id="030ba8a7-f421-4332-9ee6-291603592a08" x="690689.5610703753" y="6622279.377801813" linkRefId="1901026_0" isBlocking="false"/>
		<stopFacility id="030c23ac-cf3d-4843-b31d-e6205d9773bd" x="683233.7865474458" y="6644150.331039817" linkRefId="930478_0" isBlocking="false"/>
		<stopFacility id="03128ccc-0f1b-4d63-885f-8512dcad8a70" x="684633.9921561009" y="6662802.818827472" linkRefId="349272353_0" isBlocking="false"/>
		<stopFacility id="0313d046-0786-4091-905d-c8de3949d351" x="684705.1869329191" y="6637316.167407373" linkRefId="279130_0" isBlocking="false"/>
		<stopFacility id="031d2883-461b-4bb8-8abf-34f1c8ad7edf" x="665128.4967850391" y="6664238.761369816" linkRefId="172705458_0" isBlocking="false"/>
		<stopFacility id="0323a36c-5a40-4446-b282-2aa45622ac3d" x="683156.7204329749" y="6645902.5095878225" linkRefId="31370337_0" isBlocking="false"/>
		<stopFacility id="0323ad04-c31a-4f58-a67e-e79624c7a85e" x="684484.3829996169" y="6633241.358751934" linkRefId="312268273_0" isBlocking="false"/>
		<stopFacility id="03242c00-fe29-47bf-9f87-8434378a6da6" x="688846.1934459961" y="6637867.2379705105" linkRefId="183794827_0" isBlocking="false"/>
		<stopFacility id="032430d5-7f6a-49b7-ac47-a8eeae0c31f5" x="659809.2233495363" y="6641759.166974746" linkRefId="172113683_0" isBlocking="false"/>
		<stopFacility id="03270442-b771-4517-a98f-3501060d688f" x="694072.8210935377" y="6648283.874198399" linkRefId="368423579_0" isBlocking="false"/>
		<stopFacility id="032a883d-0569-4cfb-9f59-c7b5e0fc20c1" x="691895.9277702719" y="6650101.311379789" linkRefId="334416501_0" isBlocking="false"/>
		<stopFacility id="032b7240-6bf3-4bc2-8071-01b263c96f90" x="678942.0181034025" y="6688531.351917919" linkRefId="265770649_0" isBlocking="false"/>
		<stopFacility id="032e1ffc-72ea-4a4a-8bd1-85f5b74e677c" x="692880.2977674183" y="6624468.188722533" linkRefId="193997410_1" isBlocking="false"/>
		<stopFacility id="032ff6db-6bf1-483a-a496-a895278175af" x="691518.1449510969" y="6655409.595061227" linkRefId="232190467_0" isBlocking="false"/>
		<stopFacility id="0334a8ed-52ce-4b9c-830b-d70a020796ae" x="689688.4233841631" y="6661541.643558765" linkRefId="144840218_0" isBlocking="false"/>
		<stopFacility id="03363b66-e71b-4b00-80f1-cdaa7be83609" x="686137.1292106579" y="6651403.389445385" linkRefId="172894692_0" isBlocking="false"/>
		<stopFacility id="0337c72a-36d6-4ea3-8943-bbcd5026bd30" x="684372.6069983386" y="6646006.203407613" linkRefId="365243981_4" isBlocking="false"/>
		<stopFacility id="03388b19-f5fc-4ea8-9d36-623fdf0e770a" x="693372.974687845" y="6651884.830048685" linkRefId="362920089_0" isBlocking="false"/>
		<stopFacility id="033ac07d-0972-4930-8c47-cb259d86788c" x="667586.6175381658" y="6674723.076439773" linkRefId="119514709_0" isBlocking="false"/>
		<stopFacility id="033d9076-fd10-4cf2-9aeb-aa24293dcb64" x="683757.9751653993" y="6663246.973529921" linkRefId="216408228_0" isBlocking="false"/>
		<stopFacility id="033ef715-73b5-4833-abb3-9dab990a55ed" x="684505.4135015078" y="6651738.007280178" linkRefId="172948673_0" isBlocking="false"/>
		<stopFacility id="033fb5f4-0298-441a-93e0-ed8ded88c0bb" x="682806.2502421343" y="6655815.045517819" linkRefId="92119056_0" isBlocking="false"/>
		<stopFacility id="034316fa-e693-46da-88c0-7b33207cd6dd" x="680991.8661870192" y="6656179.488931221" linkRefId="326520777_1" isBlocking="false"/>
		<stopFacility id="0343297b-c1f3-407e-b377-74ca90ffecc8" x="682460.4634563781" y="6649132.869561228" linkRefId="31386812_2" isBlocking="false"/>
		<stopFacility id="03483c15-fbcc-489e-8a84-a126649a65f6" x="704506.5354506676" y="6627996.875498239" linkRefId="238601_1" isBlocking="false"/>
		<stopFacility id="034bc002-762f-471e-91f1-c60baa5f30f2" x="687689.5657120547" y="6645669.924511658" linkRefId="199745618_0" isBlocking="false"/>
		<stopFacility id="034c24f3-ceb6-44a3-bc74-456eecd77ede" x="680826.4871002275" y="6648906.405882663" linkRefId="35497072_0" isBlocking="false"/>
		<stopFacility id="0354cb60-f96c-4e77-b223-13f80fda8fe8" x="702512.1049237788" y="6629013.064684263" linkRefId="1898464_0" isBlocking="false"/>
		<stopFacility id="035c40b1-e837-4974-bdd8-9d076f029e5e" x="696247.9763974312" y="6637878.594278788" linkRefId="239355_0" isBlocking="false"/>
		<stopFacility id="035f1275-6bb6-4d91-9288-9b2621f00a47" x="680881.434442796" y="6645144.474976563" linkRefId="184080426_0" isBlocking="false"/>
		<stopFacility id="0365a7a2-4591-4afc-a0ee-ce55c0b201ba" x="680735.2908765044" y="6658265.755670199" linkRefId="198287574_3" isBlocking="false"/>
		<stopFacility id="0365df6d-0ac2-4f85-94bf-ba0f63c834a5" x="658448.3698510393" y="6641042.171784502" linkRefId="148712505_2" isBlocking="false"/>
		<stopFacility id="03662cbd-1d89-4001-854d-7eb864b65fcf" x="689714.982720587" y="6654812.301317859" linkRefId="172496821_0" isBlocking="false"/>
		<stopFacility id="036cb8ca-8749-4b6c-aabc-4f8f3297399a" x="687594.792063935" y="6654353.737063568" linkRefId="516778651_0" isBlocking="false"/>
		<stopFacility id="0375d781-f054-4ab9-aefb-75b597021109" x="674434.011527436" y="6625493.733184676" linkRefId="88072922_0" isBlocking="false"/>
		<stopFacility id="0378cab1-5fe6-4e96-b50f-fbcfdda36787" x="698917.3207988082" y="6639067.614112488" linkRefId="244517_1" isBlocking="false"/>
		<stopFacility id="037a3556-7689-4009-82ce-e3798e6df5eb" x="683371.4377661151" y="6646769.176252228" linkRefId="243194037_0" isBlocking="false"/>
		<stopFacility id="037c5a1f-4187-4fbc-a2e9-8c6f0782f226" x="691132.5284158922" y="6625581.547637688" linkRefId="71176276_0" isBlocking="false"/>
		<stopFacility id="037fd0d0-61d3-4858-a111-7e23de78c60b" x="699370.536983545" y="6629840.1594105195" linkRefId="1897440_0" isBlocking="false"/>
		<stopFacility id="03814ca3-575a-4d9a-89df-b222298dc58c" x="678204.8950243087" y="6636075.96622009" linkRefId="585480219_0" isBlocking="false"/>
		<stopFacility id="03859294-3c0a-45b7-a097-80b785d99f47" x="693252.0386287925" y="6647178.050166378" linkRefId="19848833_1" isBlocking="false"/>
		<stopFacility id="038655ed-bdc5-45f8-b216-e008cdf559d7" x="696875.831960018" y="6620934.234585877" linkRefId="422023042_0" isBlocking="false"/>
		<stopFacility id="038b958d-7a32-42d4-85b2-c23b072215e6" x="683778.3043543856" y="6649541.769643698" linkRefId="362775804_2" isBlocking="false"/>
		<stopFacility id="038c1a6f-330a-40ae-8ba1-edcadffd1613" x="692460.1761977394" y="6640012.085298982" linkRefId="139516982_1" isBlocking="false"/>
		<stopFacility id="0398fc16-e108-4060-b630-05a9281585f6" x="690958.7250486101" y="6644536.305740839" linkRefId="84837179_0" isBlocking="false"/>
		<stopFacility id="0399a239-0efe-4b9f-b13c-dd9e88bf9f4a" x="689448.0836346997" y="6652666.491981835" linkRefId="31401039_1" isBlocking="false"/>
		<stopFacility id="039d7166-5fb0-41d0-a36b-9176ec0e2d68" x="684994.7451481454" y="6642194.424734684" linkRefId="173255719_1" isBlocking="false"/>
		<stopFacility id="039fb60c-6fd7-4e99-b6cc-cf3ac2aaeb9f" x="677124.6290090878" y="6632857.362876718" linkRefId="8693480_0" isBlocking="false"/>
		<stopFacility id="03a27b4d-bda5-4452-bb03-4f785ee3c46a" x="672562.6544461013" y="6634091.876861036" linkRefId="204178393_1" isBlocking="false"/>
		<stopFacility id="03a4fbc8-2eca-481f-8950-2a1694e39148" x="705107.8628887563" y="6632108.804918333" linkRefId="38521698_0" isBlocking="false"/>
		<stopFacility id="03a8f474-68f5-4b2e-9fc7-e2936ca8a854" x="685130.3771750921" y="6648918.774008303" linkRefId="148617407_2" isBlocking="false"/>
		<stopFacility id="03aca05e-e2de-43bc-8e84-5af27dae1d53" x="672965.2734692107" y="6624632.548517668" linkRefId="310616228_0" isBlocking="false"/>
		<stopFacility id="03adbeb6-83ad-4115-ab3c-3614013b68e1" x="685050.7023939601" y="6655490.549613914" linkRefId="159149986_0" isBlocking="false"/>
		<stopFacility id="03aeab70-2d0c-42fc-85fe-2a4281fc045c" x="683075.6025356692" y="6643767.7018579785" linkRefId="229810167_0" isBlocking="false"/>
		<stopFacility id="03afa99d-a06a-4036-bc8c-eac12842dde5" x="700632.7746314742" y="6628058.798960671" linkRefId="308106536_0" isBlocking="false"/>
		<stopFacility id="03b03e54-3e79-440f-99c2-8833fb23807e" x="695763.2586804092" y="6649857.433069211" linkRefId="123563550_0" isBlocking="false"/>
		<stopFacility id="03b0a97d-1d2f-4a04-ab77-7a8b2246e71c" x="653588.1581186361" y="6674816.634100354" linkRefId="169829121_0" isBlocking="false"/>
		<stopFacility id="03b59a6a-96e5-4b48-9504-94a2047616b0" x="689611.8717123631" y="6661614.1185154095" linkRefId="31397220_0" isBlocking="false"/>
		<stopFacility id="03b7f19e-8c9a-4d1a-b90b-f2441d1fa107" x="682712.502301801" y="6637947.564409494" linkRefId="200580506_0" isBlocking="false"/>
		<stopFacility id="03c2847b-802a-4b76-be56-535a32cb0465" x="681285.1667143202" y="6645724.302566418" linkRefId="4456626_0" isBlocking="false"/>
		<stopFacility id="03c43cf5-7490-49df-b1cb-2d35dd61599d" x="679326.3845964435" y="6637567.715902577" linkRefId="347253009_1" isBlocking="false"/>
		<stopFacility id="03c7820d-4497-48d6-90a2-007d85e001e3" x="703392.6839861282" y="6631305.205726708" linkRefId="1889347_0" isBlocking="false"/>
		<stopFacility id="03cd59e4-732f-4117-9b6f-de7f0e4dd6f5" x="694211.1698443149" y="6647176.988519041" linkRefId="23954994_0" isBlocking="false"/>
		<stopFacility id="03d6877e-8796-47ec-9336-590b9a12ee02" x="682478.2309809851" y="6668290.630530174" linkRefId="201509677_0" isBlocking="false"/>
		<stopFacility id="03d83d2a-d78d-43c5-9544-3c8c03b8c903" x="689460.1886697237" y="6649817.358286584" linkRefId="31380256_0" isBlocking="false"/>
		<stopFacility id="03e1e386-d42e-4670-a52e-b57e3c14d047" x="684811.2199661806" y="6652311.966660241" linkRefId="331468568_0" isBlocking="false"/>
		<stopFacility id="03e524ec-265c-43a0-96b4-fe8e24d9a096" x="691884.2225003379" y="6648958.032152555" linkRefId="143887378_1" isBlocking="false"/>
		<stopFacility id="03e605d8-4c05-4c78-9280-38f67a7dabc8" x="694723.3851724641" y="6643572.373673734" linkRefId="271563154_0" isBlocking="false"/>
		<stopFacility id="03e86eb2-b8c8-48dd-b26e-e642d3e73bb1" x="684983.9128930158" y="6658665.287150124" linkRefId="194972656_1" isBlocking="false"/>
		<stopFacility id="03f001b9-f073-43e2-9096-a30c3a217a7d" x="678744.6775145301" y="6654466.937559086" linkRefId="31365201_1" isBlocking="false"/>
		<stopFacility id="03f53778-1a6e-4ad9-afe3-5b73981bb4ac" x="680812.8106822532" y="6668091.8276040405" linkRefId="166535326_0" isBlocking="false"/>
		<stopFacility id="03f82e7a-e2b1-4ea9-8755-1a884ee9cd10" x="691116.5220992574" y="6654671.708121469" linkRefId="194644405_0" isBlocking="false"/>
		<stopFacility id="03faa874-4d46-4a3e-b013-429a072dc4be" x="692785.0624492988" y="6643331.798518296" linkRefId="191681173_0" isBlocking="false"/>
		<stopFacility id="03fefde2-917d-4a6e-a64d-83c41fc3eebe" x="689305.6682689041" y="6648082.9063306665" linkRefId="303418138_0" isBlocking="false"/>
		<stopFacility id="0401b472-d2f8-4b43-a657-054f5e25c84d" x="686718.639257068" y="6642559.154086835" linkRefId="183793919_0" isBlocking="false"/>
		<stopFacility id="04042753-71e9-4ef9-b660-3361eef24847" x="695181.4329487121" y="6646371.202581626" linkRefId="316384764_0" isBlocking="false"/>
		<stopFacility id="040db186-dff6-430b-9d50-a2695acf900e" x="732726.8879213466" y="6646642.8698102655" linkRefId="217417913_0" isBlocking="false"/>
		<stopFacility id="040e8256-93d4-48a1-82a7-ba468fa1cfd6" x="691667.3432519165" y="6637791.043509386" linkRefId="361213743_0" isBlocking="false"/>
		<stopFacility id="0415da03-d53f-4beb-aa49-1b670f6eeffd" x="682735.946672" y="6646220.020789163" linkRefId="31366796_0" isBlocking="false"/>
		<stopFacility id="0416c6cf-636a-4438-b79f-25ebaabf25da" x="680500.709409121" y="6650120.807755666" linkRefId="321630665_0" isBlocking="false"/>
		<stopFacility id="041ecc3b-5343-42a8-923b-4f98fd668fdb" x="611155.7912884384" y="6676646.698728572" linkRefId="448036765_0" isBlocking="false"/>
		<stopFacility id="042128b5-ca44-4e93-a1cf-0099f82c6f08" x="694692.9263575443" y="6646133.6880725995" linkRefId="77451139_0" isBlocking="false"/>
		<stopFacility id="04219778-f1b0-443b-9023-ee6465c38b34" x="678365.8547667586" y="6639075.3457907215" linkRefId="277694329_0" isBlocking="false"/>
		<stopFacility id="043262e8-b6e9-42cb-a7f0-5eddb0fa2dc8" x="700210.4981080298" y="6627247.758963685" linkRefId="1892741_1" isBlocking="false"/>
		<stopFacility id="043503d9-45bc-4fd8-b24f-d01e5de62437" x="650832.0221665419" y="6656457.285530622" linkRefId="164936778_2" isBlocking="false"/>
		<stopFacility id="043718b4-446e-4723-972c-644891b8273b" x="700040.7477197623" y="6628322.622559401" linkRefId="1894975_0" isBlocking="false"/>
		<stopFacility id="0439b77f-d51c-45f0-acc8-d62b1999cd98" x="707048.2383926885" y="6633440.019437158" linkRefId="183069230_0" isBlocking="false"/>
		<stopFacility id="043e9fe5-e8e9-4681-808a-81d8b824ccb5" x="695195.9789774682" y="6621444.777855739" linkRefId="172351540_0" isBlocking="false"/>
		<stopFacility id="043fef80-916b-478e-8f17-a5eceddd1599" x="684209.944882313" y="6651277.709719878" linkRefId="402144392_0" isBlocking="false"/>
		<stopFacility id="04429655-4199-4bf6-ad2d-4f499f58c50d" x="644357.2509556229" y="6613553.681440034" linkRefId="36272719_0" isBlocking="false"/>
		<stopFacility id="0444c155-c6ca-407d-bf86-fd14c5b092c3" x="692461.7497933538" y="6642314.893230395" linkRefId="179801736_0" isBlocking="false"/>
		<stopFacility id="045bab04-0b94-4d30-a7fd-33984f4f82f3" x="686020.3038207273" y="6638564.662104285" linkRefId="142273240_0" isBlocking="false"/>
		<stopFacility id="045e28a1-7451-4ba9-9df9-2ecceab83509" x="688541.3166341936" y="6649325.547066677" linkRefId="471971311_0" isBlocking="false"/>
		<stopFacility id="0463d24a-62e6-4e1a-956e-e3b0024c9902" x="681073.4261974571" y="6650793.243875265" linkRefId="172386640_0" isBlocking="false"/>
		<stopFacility id="04645c71-3483-4e9e-996f-b215f76ba6ce" x="682281.0071001945" y="6641724.4508265" linkRefId="307501822_0" isBlocking="false"/>
		<stopFacility id="04686a98-b2da-4971-bfce-89d36dcff0df" x="686233.4553284775" y="6662316.783085618" linkRefId="179534902_0" isBlocking="false"/>
		<stopFacility id="046a742d-5c80-4b13-9a25-607ff7118b4b" x="624101.2185359763" y="6690066.3379082875" linkRefId="411778418_0" isBlocking="false"/>
		<stopFacility id="046e6489-5ee5-4639-ba5a-cfc1c75458f7" x="674093.8763703117" y="6659189.592627321" linkRefId="489024_0" isBlocking="false"/>
		<stopFacility id="04722d73-cb6b-431c-a1ca-3e33dd436088" x="687250.1757988797" y="6645771.48334199" linkRefId="313263900_2" isBlocking="false"/>
		<stopFacility id="0472c675-a068-4ae8-95bb-be5872c762d2" x="684679.0706748341" y="6658163.26952955" linkRefId="102861833_0" isBlocking="false"/>
		<stopFacility id="0473fc9b-2030-44a7-920d-b2d1c51f930b" x="680346.5413531768" y="6655743.607757814" linkRefId="170554643_1" isBlocking="false"/>
		<stopFacility id="047494ff-76d1-4ecf-8924-f1d99f40fb45" x="676299.1761609627" y="6638307.188624494" linkRefId="496924927_0" isBlocking="false"/>
		<stopFacility id="0475218d-f903-47cc-8c7b-8404ca27125e" x="659955.3440160595" y="6642790.313302413" linkRefId="304089938_0" isBlocking="false"/>
		<stopFacility id="047d39d4-b501-481b-9795-b2e6211c58f4" x="675196.0073558678" y="6637326.080502914" linkRefId="183792905_0" isBlocking="false"/>
		<stopFacility id="047e993e-dca9-4239-9c1b-ba558df2a1d7" x="648681.2371489594" y="6679634.885745866" linkRefId="31371999_0" isBlocking="false"/>
		<stopFacility id="047f6604-bd81-4767-a66f-76ccf7558157" x="682337.6409660778" y="6680427.5257336525" linkRefId="31374733_0" isBlocking="false"/>
		<stopFacility id="047fcb02-f8ce-4bc4-ab72-0784e4d846a7" x="690415.8540560324" y="6648875.369252948" linkRefId="194743061_1" isBlocking="false"/>
		<stopFacility id="0480934d-3d8f-4afc-b307-f71106be5af9" x="689397.4662184503" y="6643605.977674551" linkRefId="317947919_0" isBlocking="false"/>
		<stopFacility id="0480ee6a-017c-4f68-a509-3328693f88a2" x="688157.8334835388" y="6645552.03549963" linkRefId="190982109_0" isBlocking="false"/>
		<stopFacility id="04816ffc-d8ae-491d-8385-f55b37c5cc3f" x="684078.7768922991" y="6653798.377624071" linkRefId="159518780_0" isBlocking="false"/>
		<stopFacility id="0482333e-053b-401e-a7f9-547457dbb9cd" x="691965.3426083474" y="6642869.939580147" linkRefId="541149638_1" isBlocking="false"/>
		<stopFacility id="04845b62-afec-4ac0-abe7-e87062f1b83b" x="677892.0197947834" y="6637088.203672329" linkRefId="365392523_0" isBlocking="false"/>
		<stopFacility id="04845d0f-4e1d-4599-adfa-2e2078624e5c" x="690473.7570198055" y="6657243.8450703025" linkRefId="77909115_0" isBlocking="false"/>
		<stopFacility id="048498ea-9f11-4eae-832e-829994e49601" x="704767.6470974814" y="6633494.635264065" linkRefId="38521698_0" isBlocking="false"/>
		<stopFacility id="048afde6-ad10-4cd0-be6e-85bdab887073" x="681112.7957298706" y="6659489.355137317" linkRefId="326369078_0" isBlocking="false"/>
		<stopFacility id="048c36df-41b0-4df1-992b-70d228b16c48" x="681764.9199012425" y="6650597.324379124" linkRefId="31368825_0" isBlocking="false"/>
		<stopFacility id="048ddc0b-fa85-4758-b9a0-0f9cb301438e" x="686333.8896890163" y="6651433.173617577" linkRefId="333119579_0" isBlocking="false"/>
		<stopFacility id="04902a0b-61d5-4d8d-9494-f8efd2708607" x="691613.7455603256" y="6656702.0619619815" linkRefId="172798691_1" isBlocking="false"/>
		<stopFacility id="04929fd8-a006-45df-a48e-f20dadf2eaec" x="654026.7391934589" y="6653590.9669758715" linkRefId="374290895_0" isBlocking="false"/>
		<stopFacility id="0496973d-d8d9-46f8-ba12-6a01546a1f35" x="673934.7532448858" y="6625404.257716053" linkRefId="125338317_0" isBlocking="false"/>
		<stopFacility id="049cc6ef-9cd4-4f1c-abaa-3a263035cd12" x="691277.7273517982" y="6644120.022229654" linkRefId="541152198_2" isBlocking="false"/>
		<stopFacility id="04a52dd2-eb9a-4d7d-a18e-dff7d2629b9c" x="686697.7605582594" y="6661637.838910437" linkRefId="31398806_0" isBlocking="false"/>
		<stopFacility id="04a8f020-0b3a-46de-a84d-cd9b7f9795a8" x="684891.1790150607" y="6647686.745312144" linkRefId="218468859_2" isBlocking="false"/>
		<stopFacility id="04ab5e8c-b8f9-4484-9cea-1dea87bf9741" x="702789.9351224115" y="6628471.60893822" linkRefId="1888244_0" isBlocking="false"/>
		<stopFacility id="04ad402e-14fd-4635-a910-ed6367b25180" x="659440.8113887424" y="6641890.028421036" linkRefId="172113683_0" isBlocking="false"/>
		<stopFacility id="04ae41a6-56a7-4b81-93d3-98c72b010156" x="686038.1003814" y="6637713.964574476" linkRefId="315569683_0" isBlocking="false"/>
		<stopFacility id="04b00f1d-1b43-46d9-b180-ebf716509c2e" x="695080.090575796" y="6651739.805180262" linkRefId="511098913_0" isBlocking="false"/>
		<stopFacility id="04bcf647-2a85-455d-b376-3e760d84e928" x="695341.9454580001" y="6655390.792986833" linkRefId="195816798_1" isBlocking="false"/>
		<stopFacility id="04c10090-b0df-4697-bebe-97352cad7979" x="688974.6630424727" y="6658638.823302207" linkRefId="31367816_0" isBlocking="false"/>
		<stopFacility id="04c6c663-0dc3-4e11-9621-452336f1bca7" x="635380.345555649" y="6679604.294733664" linkRefId="172778656_0" isBlocking="false"/>
		<stopFacility id="04d0de03-7962-40c4-905d-d1864d7bab6a" x="683075.6025356692" y="6643767.7018579785" linkRefId="229810167_0" isBlocking="false"/>
		<stopFacility id="04d18291-386e-429d-bc96-692c97f7ad7f" x="647374.3720186665" y="6625915.253911864" linkRefId="500076729_0" isBlocking="false"/>
		<stopFacility id="04d1eafd-970c-4070-b7d9-31f4fe16465a" x="683686.0503086293" y="6651268.782351533" linkRefId="403844769_0" isBlocking="false"/>
		<stopFacility id="04d368f8-9a8d-4e8f-86ca-07ae9e85a4b2" x="692079.036547814" y="6649017.914317378" linkRefId="365249853_0" isBlocking="false"/>
		<stopFacility id="04d3bcc9-8216-4dd5-ae76-253bf6f660ff" x="694440.9986575317" y="6626845.830517937" linkRefId="1900387_1" isBlocking="false"/>
		<stopFacility id="04d3f2bd-1dee-475d-928c-ab73ca28a727" x="687507.2063464014" y="6660246.9103745315" linkRefId="31386282_4" isBlocking="false"/>
		<stopFacility id="04d728fa-ce15-49db-bbc7-d2bb1a9bfcec" x="721472.0369245494" y="6651082.13113545" linkRefId="170394628_0" isBlocking="false"/>
		<stopFacility id="04d97b02-c411-47bc-a8a5-35929f0eff1a" x="713018.591603284" y="6623275.370815814" linkRefId="422035098_0" isBlocking="false"/>
		<stopFacility id="04d9d67a-ad4d-4969-82d9-9d2e8c3cda5e" x="665173.6340116751" y="6665629.648722023" linkRefId="105257740_0" isBlocking="false"/>
		<stopFacility id="04dce966-5a2f-4a43-b324-9f3ae663981d" x="688649.7821086571" y="6647002.601100151" linkRefId="497947592_0" isBlocking="false"/>
		<stopFacility id="04de69e1-3f81-4455-a2dc-756233c4cd3a" x="685832.5034111465" y="6642458.802829783" linkRefId="269060783_0" isBlocking="false"/>
		<stopFacility id="04df1c48-4ea7-471a-a474-c9353d4f88ec" x="654054.0369356937" y="6684470.514498853" linkRefId="240569_0" isBlocking="false"/>
		<stopFacility id="04e4cbaa-4349-45f7-8080-1a334d4e65ca" x="658731.9675548293" y="6623226.432056206" linkRefId="31378845_0" isBlocking="false"/>
		<stopFacility id="04e4fb82-83f4-4a55-a93b-222ce6f65529" x="682634.9426480553" y="6656599.673068878" linkRefId="198311047_0" isBlocking="false"/>
		<stopFacility id="04ebc872-84af-46ac-b119-47eb181d7ab6" x="690893.0202658292" y="6652430.81444381" linkRefId="183889982_0" isBlocking="false"/>
		<stopFacility id="04ec6e2e-2605-4106-ae56-ab8c84aba8dd" x="683769.0709759423" y="6622921.327309252" linkRefId="77943026_2" isBlocking="false"/>
		<stopFacility id="04edd92d-85bf-4c81-b41b-a771ad3e9846" x="687254.4252764955" y="6651208.671195709" linkRefId="35109816_0" isBlocking="false"/>
		<stopFacility id="04f02b2a-78dd-4489-b8c6-297ef6611eab" x="621120.2257587713" y="6672146.988019671" linkRefId="448036765_0" isBlocking="false"/>
		<stopFacility id="04f39cfd-7bd4-4b29-afbf-6c5ec6ad2f0a" x="696091.7468687433" y="6638078.97372813" linkRefId="38144334_0" isBlocking="false"/>
		<stopFacility id="04f47488-cd95-4ece-b1f3-e12443612065" x="677871.6064067464" y="6639030.63292529" linkRefId="178322081_0" isBlocking="false"/>
		<stopFacility id="04fa292e-2e1e-4807-92cd-fbbc775374e7" x="689411.2655947725" y="6657727.020003803" linkRefId="38927795_0" isBlocking="false"/>
		<stopFacility id="04fd088e-cbf3-499b-9eed-8c171ccf1b9e" x="696707.3840938904" y="6653758.039034763" linkRefId="31399341_2" isBlocking="false"/>
		<stopFacility id="0501d296-9d59-4329-a080-22b6373f18b0" x="686620.4786649528" y="6667903.380674879" linkRefId="244117_0" isBlocking="false"/>
		<stopFacility id="0505f9d1-17fc-4073-ad8a-9e0a318e2d91" x="719361.371823187" y="6636801.854749663" linkRefId="185101965_0" isBlocking="false"/>
		<stopFacility id="050a9fef-4222-424e-9206-a110057d6b89" x="682122.7091075032" y="6663546.527877656" linkRefId="303401299_1" isBlocking="false"/>
		<stopFacility id="050ba177-5114-4de0-bd77-7e620b45bcbc" x="678022.4976809314" y="6636657.574224206" linkRefId="237450288_8" isBlocking="false"/>
		<stopFacility id="050ecc98-b9bc-422b-81da-aab8fe5500cc" x="691438.2297776374" y="6645440.771624465" linkRefId="181498923_0" isBlocking="false"/>
		<stopFacility id="050fc4e1-38e5-4a80-97cc-064496a7bc36" x="673247.6223137476" y="6657732.532685329" linkRefId="136116603_0" isBlocking="false"/>
		<stopFacility id="051133a1-bb1c-4db4-b565-5d2fd0d92bf9" x="692460.1761977394" y="6640012.085298982" linkRefId="139516982_1" isBlocking="false"/>
		<stopFacility id="0514a647-c558-498c-bb33-cde6756c560b" x="687227.7071911518" y="6654669.310284307" linkRefId="356651749_0" isBlocking="false"/>
		<stopFacility id="05151266-79a1-49a0-a345-d570d0c5e658" x="693875.2124668646" y="6641834.118429064" linkRefId="31374891_3" isBlocking="false"/>
		<stopFacility id="05180990-9ab7-441e-9a82-5af6202767be" x="658485.8494933181" y="6677090.729473135" linkRefId="244059_0" isBlocking="false"/>
		<stopFacility id="05195ddf-5024-4ba5-be5c-f5f03e618df8" x="691596.5334575162" y="6656639.804180799" linkRefId="172798674_0" isBlocking="false"/>
		<stopFacility id="051dfd1d-1f02-4e9b-8e66-3ef2437910b3" x="683911.8950017547" y="6659533.567627705" linkRefId="31399407_0" isBlocking="false"/>
		<stopFacility id="0523580a-7b2b-4cfd-bbbe-3462ca2bdc68" x="644471.2719424395" y="6676210.901670504" linkRefId="71795767_0" isBlocking="false"/>
		<stopFacility id="05244396-52e9-493b-99da-ed3bb68cc2d6" x="658212.6045079478" y="6641579.010388205" linkRefId="173031733_0" isBlocking="false"/>
		<stopFacility id="05252f71-53fd-4d4a-b727-7ad11848719a" x="680269.3127941649" y="6658608.225543057" linkRefId="144840230_0" isBlocking="false"/>
		<stopFacility id="052fd806-e99a-4512-93d1-d6e4b82d23c6" x="683338.9283111161" y="6646725.621652723" linkRefId="460037285_0" isBlocking="false"/>
		<stopFacility id="0531d7ed-0b31-4903-80d9-804d5430f30b" x="684664.9489225275" y="6650434.905541704" linkRefId="539501292_3" isBlocking="false"/>
		<stopFacility id="05322fad-07ae-4715-89dc-fc70aa26e2f3" x="695326.4456229447" y="6652669.200679776" linkRefId="317391488_0" isBlocking="false"/>
		<stopFacility id="053325e9-10c1-470c-9d75-ad61395bab07" x="688269.3155201812" y="6651283.830819445" linkRefId="241879_0" isBlocking="false"/>
		<stopFacility id="05385422-4071-4726-aee6-b77d3a3ae101" x="680539.4838602513" y="6650076.18913736" linkRefId="235081_0" isBlocking="false"/>
		<stopFacility id="053a7e1b-8dbe-4198-8ab0-c398eeaa6cfb" x="692358.4580275302" y="6642358.615996423" linkRefId="437966010_0" isBlocking="false"/>
		<stopFacility id="05423fcd-d4f2-47f4-bb76-7635daf780d0" x="691884.1560383023" y="6645091.91396933" linkRefId="194329442_21" isBlocking="false"/>
		<stopFacility id="054260f9-978a-453c-9b3f-1578d91fbbdd" x="686041.5911833923" y="6639249.100614286" linkRefId="4339387_0" isBlocking="false"/>
		<stopFacility id="054a6848-3583-4f45-afe2-d05aca3a2db9" x="691697.8174267791" y="6641548.092995352" linkRefId="326359988_0" isBlocking="false"/>
		<stopFacility id="054d0923-c991-464a-bf04-9be43d4a3956" x="685983.1221421469" y="6627601.581736903" linkRefId="147054399_0" isBlocking="false"/>
		<stopFacility id="054e4909-e432-4011-8e9b-f1f94911a512" x="692708.8064930806" y="6646874.120421192" linkRefId="238641_3" isBlocking="false"/>
		<stopFacility id="055213d0-b2ed-4f90-88fe-8729dfb12419" x="661268.3192615131" y="6640409.843928358" linkRefId="120874178_0" isBlocking="false"/>
		<stopFacility id="05524a3b-b818-4590-8ad4-39799d384e9f" x="687795.0116760579" y="6649937.696688334" linkRefId="515904517_1" isBlocking="false"/>
		<stopFacility id="05526b1b-7db0-442f-8c9b-8adcc1eec431" x="686996.150645365" y="6648640.137631069" linkRefId="1037547_0" isBlocking="false"/>
		<stopFacility id="05552a92-2409-41f4-b87e-647c0f2606eb" x="670058.1802008932" y="6670329.603191307" linkRefId="239207_0" isBlocking="false"/>
		<stopFacility id="0555e23d-9303-4aba-950d-4d5343cac572" x="631221.8537885388" y="6607712.324316478" linkRefId="144717725_0" isBlocking="false"/>
		<stopFacility id="055bbc8a-088d-41de-8cc0-9eebdbac79ec" x="686648.172118259" y="6644852.294845053" linkRefId="178581714_1" isBlocking="false"/>
		<stopFacility id="055d8687-f08a-470d-ae3e-015496209d8f" x="651880.9850257513" y="6655833.199695791" linkRefId="202580386_0" isBlocking="false"/>
		<stopFacility id="056330ff-5c27-4acf-b019-358b024ea4a2" x="682609.2017567458" y="6657262.009313705" linkRefId="194972647_0" isBlocking="false"/>
		<stopFacility id="05684d3a-8bb9-45e6-bfe0-35055b24826a" x="684236.6512043099" y="6647748.211983796" linkRefId="295768220_0" isBlocking="false"/>
		<stopFacility id="056977d7-1950-4117-bdf8-c6f15b45770f" x="694508.7236997909" y="6626142.296724811" linkRefId="1902250_0" isBlocking="false"/>
		<stopFacility id="056bd673-daa0-4e05-884e-f2e56ce06841" x="687010.1447777292" y="6656906.177688152" linkRefId="363103043_0" isBlocking="false"/>
		<stopFacility id="056ee03d-0e5b-4ad6-be67-8b9bb103d9f8" x="671389.8697900469" y="6623826.742601397" linkRefId="238471_0" isBlocking="false"/>
		<stopFacility id="056f99be-863d-438f-a46c-97060a6e6c8a" x="686506.1062733731" y="6633125.10172131" linkRefId="241523_0" isBlocking="false"/>
		<stopFacility id="056fe309-e6ab-49c4-bcb4-f91e0498f27e" x="665766.8351748593" y="6660154.557154404" linkRefId="1406495_0" isBlocking="false"/>
		<stopFacility id="0572ad27-95c1-4369-b924-d1c236d0da1d" x="689717.0839197446" y="6660570.380718359" linkRefId="144529110_0" isBlocking="false"/>
		<stopFacility id="05732f47-81ea-4a9c-af5c-e8898886e06b" x="684484.3829996169" y="6633241.358751934" linkRefId="312268273_0" isBlocking="false"/>
		<stopFacility id="05795acc-4c31-4cd5-a721-c33b122f508e" x="667064.625302908" y="6658309.589453185" linkRefId="345595097_0" isBlocking="false"/>
		<stopFacility id="057c43c5-b667-46fc-b72b-f4cd3943340c" x="680628.5765024481" y="6648954.393030702" linkRefId="31397914_1" isBlocking="false"/>
		<stopFacility id="0580c8aa-3b3a-48b5-98b9-62bf9acc8b20" x="680625.7606632346" y="6661158.259807983" linkRefId="326369079_0" isBlocking="false"/>
		<stopFacility id="0583b24a-c1e0-45f3-a278-6da8953fd7a6" x="684418.2412710963" y="6649453.188623174" linkRefId="246751703_1" isBlocking="false"/>
		<stopFacility id="0585788c-0819-4260-89ca-c5a44a6c7b18" x="684981.2385662459" y="6665434.497647358" linkRefId="203341608_0" isBlocking="false"/>
		<stopFacility id="05897177-f1b4-4c36-b496-fd19a728354f" x="664780.8178186016" y="6636935.206468396" linkRefId="160189121_0" isBlocking="false"/>
		<stopFacility id="058da339-feb5-44d8-90d4-29dee5861989" x="680898.3019861422" y="6655667.246027677" linkRefId="326520776_2" isBlocking="false"/>
		<stopFacility id="058f2ca4-9a0e-486e-9cfd-83e543c4a3fa" x="687352.5240147046" y="6637410.425104541" linkRefId="269777135_0" isBlocking="false"/>
		<stopFacility id="059b62cd-b4b1-41eb-8af6-2abc1e3f8119" x="684978.7099534334" y="6655033.243612278" linkRefId="171738049_5" isBlocking="false"/>
		<stopFacility id="05a2193d-0e11-4753-9fda-bc7f7fb643e3" x="689028.9963424292" y="6650318.822568118" linkRefId="31367922_1" isBlocking="false"/>
		<stopFacility id="05a95152-55c0-4da0-b3c8-76a8859a5f31" x="673479.2190411971" y="6669857.495452718" linkRefId="258136385_0" isBlocking="false"/>
		<stopFacility id="05b5d031-75d6-4922-a7ce-c916e44e98ab" x="687834.4846159541" y="6639762.969841903" linkRefId="306014944_0" isBlocking="false"/>
		<stopFacility id="05b60155-78d3-4d02-9dab-e842002d410f" x="693753.5602891336" y="6641657.610360253" linkRefId="272692_0" isBlocking="false"/>
		<stopFacility id="05b66a6b-c400-407c-aea8-ec3b6e848417" x="693616.1884154972" y="6647348.838738825" linkRefId="182693879_0" isBlocking="false"/>
		<stopFacility id="05b713b0-98c4-4a36-b0c2-71da1a9bd625" x="684472.9138383529" y="6662336.351083562" linkRefId="242489_0" isBlocking="false"/>
		<stopFacility id="05c02e8d-52d3-41e2-807b-df8f81455a10" x="682838.3545716313" y="6643305.323964129" linkRefId="31388709_0" isBlocking="false"/>
		<stopFacility id="05c293a4-f783-49e8-b0f9-daf3807ce01a" x="691855.3452366106" y="6624221.734371295" linkRefId="65750997_0" isBlocking="false"/>
		<stopFacility id="05c6b819-fc9c-4abc-aadd-b1dd260e34fd" x="684640.8148369684" y="6649800.638013941" linkRefId="31366365_2" isBlocking="false"/>
		<stopFacility id="05ca027c-0d85-42e6-9053-f383f838dc88" x="702725.9135663874" y="6626938.187534679" linkRefId="428714926_0" isBlocking="false"/>
		<stopFacility id="05d17f94-2a10-4d9e-84b7-50a4b0c55b5b" x="684772.6905552973" y="6658020.15598667" linkRefId="132189154_0" isBlocking="false"/>
		<stopFacility id="05d5925a-7d21-4d8a-90fd-3b8423a23481" x="683489.7384094592" y="6649853.819295745" linkRefId="197511870_2" isBlocking="false"/>
		<stopFacility id="05d81c0a-3804-4f09-bf36-095669fb5bc5" x="682683.8646774184" y="6642093.661257846" linkRefId="186212662_0" isBlocking="false"/>
		<stopFacility id="05dbe828-253e-4875-b5a9-61c587b56a42" x="703603.0681474583" y="6629822.121955863" linkRefId="243063_0" isBlocking="false"/>
		<stopFacility id="05dc07b0-4c48-4da3-be19-a871555c3f45" x="682650.3697950549" y="6657315.921414415" linkRefId="194972654_0" isBlocking="false"/>
		<stopFacility id="05df6aba-8fb4-4ff9-b02f-a167e41d750a" x="702725.1093353351" y="6627156.848857794" linkRefId="1889890_0" isBlocking="false"/>
		<stopFacility id="05e37109-5357-4e7f-b360-053c5eb88d30" x="682606.6895739528" y="6642546.526893217" linkRefId="31366375_0" isBlocking="false"/>
		<stopFacility id="05e8772c-f1c4-4415-94b3-a3b59ea4b834" x="685345.8416872876" y="6660962.141857584" linkRefId="193652273_0" isBlocking="false"/>
		<stopFacility id="05ea14e8-41e7-4b23-a02d-50efc6ed11a8" x="692736.5846931664" y="6618722.3577059405" linkRefId="1867280_0" isBlocking="false"/>
		<stopFacility id="05ef3e25-c880-44a6-a41a-2516ac7d82be" x="690188.829101341" y="6639627.098696634" linkRefId="123258876_1" isBlocking="false"/>
		<stopFacility id="05f66b74-8db1-46a7-941c-b639cfafcbe6" x="692332.7934448689" y="6623417.548394365" linkRefId="146348040_0" isBlocking="false"/>
		<stopFacility id="05f9daa7-27ea-4a57-85f4-2b85a63fa18d" x="672754.7999124222" y="6632903.917093734" linkRefId="271958198_0" isBlocking="false"/>
		<stopFacility id="05fc0489-2ef7-4892-99a9-dc1dc5ed2aa1" x="684964.6922873594" y="6658672.241875648" linkRefId="194972656_1" isBlocking="false"/>
		<stopFacility id="060407fb-dde8-4841-8919-3e6a5b1108ac" x="679878.6523253262" y="6638589.39188534" linkRefId="156286448_0" isBlocking="false"/>
		<stopFacility id="060ad85c-5dfe-4eda-ba5f-10262b48782f" x="686740.9505029885" y="6650379.785606753" linkRefId="146296728_1" isBlocking="false"/>
		<stopFacility id="06170094-9830-47b6-bb66-6b7f482dc199" x="681449.1220479334" y="6638043.492265051" linkRefId="347257566_0" isBlocking="false"/>
		<stopFacility id="061e5530-18a1-4887-8126-8e138bddd89f" x="683891.2823351212" y="6674253.595930747" linkRefId="82540128_0" isBlocking="false"/>
		<stopFacility id="06206387-2b46-4b6b-8ebd-1700f9b7b480" x="660598.2637047471" y="6618511.478282244" linkRefId="409188477_0" isBlocking="false"/>
		<stopFacility id="062494b8-8307-4d5e-95ee-815133e36a74" x="679684.5597513525" y="6655719.750570118" linkRefId="326369576_0" isBlocking="false"/>
		<stopFacility id="062e0173-5d8d-4587-9c57-230d800a8499" x="695087.8030367488" y="6629887.577148466" linkRefId="294905614_1" isBlocking="false"/>
		<stopFacility id="06434dbe-7d16-4ced-85c5-83207622ff01" x="655032.5491084962" y="6645228.850721999" linkRefId="204419701_0" isBlocking="false"/>
		<stopFacility id="06449914-0031-4ed4-8c39-b1f83b6116fa" x="660065.7714473328" y="6642703.651611706" linkRefId="304089938_0" isBlocking="false"/>
		<stopFacility id="0645d0a0-0288-4c49-92b3-21369ff21d66" x="692457.5182208252" y="6647479.340293912" linkRefId="195820153_0" isBlocking="false"/>
		<stopFacility id="064af91b-ea87-49af-ba6e-71dbb2f701a7" x="684901.9417254134" y="6646279.940279214" linkRefId="31402297_4" isBlocking="false"/>
		<stopFacility id="064d5172-7a0f-4995-906c-9681b6f8830e" x="684507.7882806829" y="6649384.928438235" linkRefId="361556347_0" isBlocking="false"/>
		<stopFacility id="06516b67-55e9-46a2-a9b1-ba22e7fe227a" x="680355.6960541953" y="6637217.184244573" linkRefId="347257568_0" isBlocking="false"/>
		<stopFacility id="0653f3f4-ed0d-4c4d-bb01-1fb68d074e0f" x="631422.1958849624" y="6607699.837294337" linkRefId="144717725_0" isBlocking="false"/>
		<stopFacility id="0656e1c9-0a88-4a9f-92bb-c1c5e0dce60f" x="680346.5413531768" y="6655743.607757814" linkRefId="170554643_1" isBlocking="false"/>
		<stopFacility id="065aa862-a565-4c49-9799-30245ba48a13" x="660774.0828545865" y="6642206.470370418" linkRefId="221510781_0" isBlocking="false"/>
		<stopFacility id="065ac072-31c4-47a4-b581-4205438a2e2b" x="667114.6585990798" y="6640068.597864152" linkRefId="207606343_0" isBlocking="false"/>
		<stopFacility id="065bfb85-e72d-4cfc-ac78-501c86d99709" x="689078.6636035844" y="6657006.522004752" linkRefId="509507339_1" isBlocking="false"/>
		<stopFacility id="06600475-6a30-47c5-9921-9c520ad27e1c" x="693377.1317754525" y="6651919.746415328" linkRefId="178945068_1" isBlocking="false"/>
		<stopFacility id="066134e0-be29-4cbf-b322-e17d17b22354" x="689336.9105987488" y="6650584.161854632" linkRefId="146426975_0" isBlocking="false"/>
		<stopFacility id="0664fc8b-6db2-43d8-894f-b23e72e2a1ed" x="648757.3434089686" y="6620560.6840597" linkRefId="266118520_0" isBlocking="false"/>
		<stopFacility id="0665725a-1989-47d3-aed8-d64b7969e992" x="679386.1793423531" y="6638584.275008849" linkRefId="207612331_0" isBlocking="false"/>
		<stopFacility id="066a3e5a-5fa0-4e55-8eac-69b141f361d1" x="694218.3634574754" y="6644432.49468144" linkRefId="98030072_1" isBlocking="false"/>
		<stopFacility id="066a8158-c63e-4933-afa9-501d2c1d9d44" x="738915.7256896617" y="6649156.482644105" linkRefId="449014645_1" isBlocking="false"/>
		<stopFacility id="066fa379-47de-4668-bd15-732a843af044" x="630745.6986661154" y="6683069.7493967535" linkRefId="172778656_0" isBlocking="false"/>
		<stopFacility id="06707a12-c2d7-4bdc-b348-f6cc001dfeda" x="689290.8634932274" y="6653797.701732335" linkRefId="194644407_0" isBlocking="false"/>
		<stopFacility id="0671c185-9d25-4ec5-a42e-544902f471ad" x="677867.5509884801" y="6638732.636023212" linkRefId="184940647_0" isBlocking="false"/>
		<stopFacility id="0672128f-3520-465a-ab4c-2777f62c0184" x="691689.9732272949" y="6656113.1518675" linkRefId="422006712_0" isBlocking="false"/>
		<stopFacility id="0672c6da-923c-4067-aaf4-189fa1cdcd80" x="652835.7117904886" y="6675231.021826827" linkRefId="244061_0" isBlocking="false"/>
		<stopFacility id="0672f27b-e8ed-40c3-ab5b-e2e54eee36ca" x="677953.4586341423" y="6639765.126298851" linkRefId="201509686_0" isBlocking="false"/>
		<stopFacility id="06828893-6d92-4f37-b937-885e43851e6a" x="681575.1231843726" y="6654732.406332478" linkRefId="528751502_0" isBlocking="false"/>
		<stopFacility id="0682e8b1-62d1-4490-be21-689b17a116db" x="680650.7668534566" y="6650784.251268797" linkRefId="321630661_0" isBlocking="false"/>
		<stopFacility id="06832577-c3ee-4adb-8a80-5422f5537137" x="693931.7373820868" y="6653011.126744811" linkRefId="31380613_1" isBlocking="false"/>
		<stopFacility id="06866a02-66e9-4cd9-9cc0-a8d921efbd78" x="691620.6985488974" y="6626566.600661218" linkRefId="1901338_0" isBlocking="false"/>
		<stopFacility id="0686d952-fdcc-45b8-9cf1-4f180843653a" x="697768.7003988196" y="6654079.911864829" linkRefId="242825_1" isBlocking="false"/>
		<stopFacility id="06895d30-dcd2-44ed-ab2f-7983d695790f" x="686697.6264369555" y="6631533.6118231295" linkRefId="87346845_0" isBlocking="false"/>
		<stopFacility id="068c25c2-f351-4ab5-be0f-a7d4a228f6da" x="683758.5496402583" y="6619080.590653071" linkRefId="1898424_0" isBlocking="false"/>
		<stopFacility id="068e0f83-460f-4128-bd7a-401f25f8df6b" x="678862.8899839722" y="6639061.032610527" linkRefId="277694329_2" isBlocking="false"/>
		<stopFacility id="068e1c3c-a995-48a1-8ae8-1e26edab02ce" x="682692.6624728186" y="6648736.078234791" linkRefId="387148844_0" isBlocking="false"/>
		<stopFacility id="069376f4-a047-4f83-ab7a-77f3cc803810" x="672856.3473808375" y="6625574.554007456" linkRefId="125079743_0" isBlocking="false"/>
		<stopFacility id="06965e62-8209-4a19-8500-8934930c6409" x="685103.4130283855" y="6660176.627847085" linkRefId="143346863_0" isBlocking="false"/>
		<stopFacility id="06970f17-5822-4a63-84c1-c7b8b162ef61" x="683729.7040754835" y="6650888.446584343" linkRefId="60869458_0" isBlocking="false"/>
		<stopFacility id="06975c35-5864-4366-afe5-7b26a6c7db7e" x="707140.9400508141" y="6632004.6000648355" linkRefId="330379317_0" isBlocking="false"/>
		<stopFacility id="069cc173-319e-4648-8106-a9ab42a428eb" x="687741.65089102" y="6662111.346272877" linkRefId="195919185_0" isBlocking="false"/>
		<stopFacility id="06a01edf-9311-4371-a861-55b2edc8f9e3" x="685974.3377352889" y="6648435.848581875" linkRefId="66683385_0" isBlocking="false"/>
		<stopFacility id="06a02653-d0a6-40fe-9d3b-6a63146a4b88" x="672653.9845432173" y="6636062.3191681" linkRefId="172113665_0" isBlocking="false"/>
		<stopFacility id="06a1cde9-786c-448c-8d75-4f7478728e16" x="691745.4027013005" y="6647027.195611961" linkRefId="316194275_1" isBlocking="false"/>
		<stopFacility id="06a2eb10-034e-485e-99e9-ec56d0a8e008" x="684622.0104340825" y="6663130.190983688" linkRefId="85104151_0" isBlocking="false"/>
		<stopFacility id="06ac810e-f672-460b-946d-f73a14ce8576" x="705280.2278458558" y="6646435.502197599" linkRefId="265385702_0" isBlocking="false"/>
		<stopFacility id="06b06198-629e-4a91-bc58-c2d8e2f35288" x="678768.7740626114" y="6639484.800577761" linkRefId="194455528_1" isBlocking="false"/>
		<stopFacility id="06b22fe8-64de-4957-a956-306489b564b7" x="692957.4292342956" y="6652705.658923755" linkRefId="243949_0" isBlocking="false"/>
		<stopFacility id="06b6910f-32a1-40ad-8c55-c8510c16caf4" x="655388.7056066007" y="6653760.491485157" linkRefId="131897569_0" isBlocking="false"/>
		<stopFacility id="06ba6995-f7e2-4621-8041-cd8e51336734" x="682389.5050739744" y="6652691.770697568" linkRefId="31402087_0" isBlocking="false"/>
		<stopFacility id="06c1f214-0be2-4f5e-ab3b-ff2da2ead813" x="684451.34344662" y="6653006.336489803" linkRefId="156494601_0" isBlocking="false"/>
		<stopFacility id="06c64519-b73d-475d-894c-110044ad64c2" x="687135.8297007978" y="6657407.660552127" linkRefId="31387755_2" isBlocking="false"/>
		<stopFacility id="06d0314d-8673-4b23-8042-455e2c625bf5" x="694999.2449975002" y="6648093.205940343" linkRefId="181353494_2" isBlocking="false"/>
		<stopFacility id="06d03518-2e9d-43e5-86c0-0a4290e34432" x="690069.793913283" y="6659234.953958241" linkRefId="131611143_0" isBlocking="false"/>
		<stopFacility id="06d61e65-a2a2-42bf-8e62-ce3a206dbd1f" x="680510.7640070934" y="6667615.812119919" linkRefId="428807667_0" isBlocking="false"/>
		<stopFacility id="06d6f22a-51fd-4113-bba7-a5634e6ce96e" x="687476.349565" y="6647309.9371805135" linkRefId="178568774_0" isBlocking="false"/>
		<stopFacility id="06db8a66-c8d3-497d-b31a-d9c9e69157e3" x="687606.5729816688" y="6644720.824246191" linkRefId="159265370_1" isBlocking="false"/>
		<stopFacility id="06dbaaa6-243a-48e1-9f12-03beafeee788" x="687527.1492911123" y="6656154.327966055" linkRefId="312230_0" isBlocking="false"/>
		<stopFacility id="06e4a38b-3166-43b2-a7de-add0f333c3ed" x="653414.8872220044" y="6645451.294184418" linkRefId="55291548_1" isBlocking="false"/>
		<stopFacility id="06e57b3b-49f4-4fa2-805b-ddca6ac6f81d" x="691774.2247131332" y="6647073.09389799" linkRefId="316194275_1" isBlocking="false"/>
		<stopFacility id="06e8dc29-2870-4bfe-86bd-07ea62e8d498" x="713018.591603284" y="6623275.370815814" linkRefId="422035098_0" isBlocking="false"/>
		<stopFacility id="06e93ef4-60cc-4947-a272-efb771e12465" x="687071.1021887441" y="6648935.653376289" linkRefId="121643106_0" isBlocking="false"/>
		<stopFacility id="06f1ffdc-d590-4ae7-a7d3-0e0f3ef71968" x="692756.4702844755" y="6622265.235695845" linkRefId="1888446_0" isBlocking="false"/>
		<stopFacility id="06f78e6e-d918-4638-af97-a37828622efb" x="689721.0460682712" y="6642318.6226813225" linkRefId="307617032_1" isBlocking="false"/>
		<stopFacility id="06f991d4-5de0-491e-8253-d5d7663b5c3a" x="689387.6804140359" y="6641561.470580496" linkRefId="417333934_0" isBlocking="false"/>
		<stopFacility id="06fea13e-57ad-4a24-977f-f6de43e50fb8" x="694955.1155873617" y="6649435.672196594" linkRefId="35564891_0" isBlocking="false"/>
		<stopFacility id="0701b3d2-4897-456b-8256-153cba5a590b" x="682417.9745184551" y="6656652.953685646" linkRefId="181364114_0" isBlocking="false"/>
		<stopFacility id="0703c299-3d6f-45d1-8528-81e93e4c6ce3" x="690031.4720267066" y="6634456.807915448" linkRefId="363945285_0" isBlocking="false"/>
		<stopFacility id="0703f502-f33c-4dd2-869f-7669db976d18" x="689251.6235010743" y="6657403.310580603" linkRefId="509507333_0" isBlocking="false"/>
		<stopFacility id="07075877-7f0e-4b3b-8c8b-99e53d6fe6ea" x="684915.9489213042" y="6639717.074425661" linkRefId="365729709_0" isBlocking="false"/>
		<stopFacility id="0707af19-3a18-441c-b90d-2fe8622e77fd" x="684470.2805148445" y="6648573.41140887" linkRefId="146724998_0" isBlocking="false"/>
		<stopFacility id="070bd1a6-3b3a-4c36-b125-4c02152c1d91" x="677353.5458879995" y="6640986.356374142" linkRefId="315368418_0" isBlocking="false"/>
		<stopFacility id="07117e98-76c5-419b-a6fa-e2803806472d" x="641486.7890599231" y="6611954.149856234" linkRefId="271411724_0" isBlocking="false"/>
		<stopFacility id="0713fe18-c070-4f32-a768-772830152b10" x="690888.9075460152" y="6641766.710850038" linkRefId="317950704_4" isBlocking="false"/>
		<stopFacility id="0716b405-8c5a-4ad6-b6ef-7d422a9c4f41" x="706375.0297067186" y="6631946.267092593" linkRefId="183069230_0" isBlocking="false"/>
		<stopFacility id="0719d7ac-2377-4b30-a6fa-33b0ba2d0cdf" x="683296.6187041379" y="6651745.823166017" linkRefId="175000668_2" isBlocking="false"/>
		<stopFacility id="071a3e92-f441-42ae-9772-5988f1292a44" x="690867.3923746394" y="6637394.584050988" linkRefId="181395483_0" isBlocking="false"/>
		<stopFacility id="0736d6e5-4f08-417f-a849-9d2dbf3a9065" x="691829.7492297809" y="6635223.991082512" linkRefId="181989781_1" isBlocking="false"/>
		<stopFacility id="0737d365-2982-4e68-bd08-9ba844a16ec8" x="691094.1119943031" y="6655509.418705961" linkRefId="346569138_0" isBlocking="false"/>
		<stopFacility id="07391fc0-35c8-4617-8798-21e40794fa0b" x="683414.6859612239" y="6650068.060132997" linkRefId="358225231_1" isBlocking="false"/>
		<stopFacility id="073d3283-e02b-46f7-924b-736062c3a439" x="683959.4260861451" y="6657633.401282777" linkRefId="138276248_0" isBlocking="false"/>
		<stopFacility id="0740aa2e-6455-41f5-8db0-14afd26c79af" x="679589.5436128078" y="6649481.863589346" linkRefId="232315_0" isBlocking="false"/>
		<stopFacility id="0740b919-defd-4c78-9250-261d6471ecfb" x="687107.3025179168" y="6644113.556305783" linkRefId="239127_0" isBlocking="false"/>
		<stopFacility id="07445ec0-d18b-4458-9341-0bb937c8d390" x="695254.0590327978" y="6649384.516881478" linkRefId="124051682_0" isBlocking="false"/>
		<stopFacility id="0745d555-a833-4a3d-b295-2314de319957" x="689112.3440491614" y="6640552.630483979" linkRefId="157866750_10" isBlocking="false"/>
		<stopFacility id="074af441-2020-40ce-a4f5-10d2f81b07b2" x="673246.9181009703" y="6636681.153417543" linkRefId="119140703_3" isBlocking="false"/>
		<stopFacility id="07645403-202a-4268-83c3-28f7e879a0b8" x="679442.5595446905" y="6660241.786161064" linkRefId="522108076_0" isBlocking="false"/>
		<stopFacility id="07673cda-5d52-4793-b8e6-7bd58f86c0a4" x="687406.505606193" y="6641031.225647142" linkRefId="173275441_0" isBlocking="false"/>
		<stopFacility id="076ac1ef-4490-45be-bf9d-b4cc2513d390" x="695315.6641922569" y="6644888.896976589" linkRefId="41290649_2" isBlocking="false"/>
		<stopFacility id="076c9c52-b68f-4a60-ad03-dc93be4fdec2" x="684764.7217688338" y="6659266.94047576" linkRefId="355775301_2" isBlocking="false"/>
		<stopFacility id="07733603-8e52-48a7-861f-986d0aee43ac" x="702958.497920015" y="6627440.489570984" linkRefId="160309095_0" isBlocking="false"/>
		<stopFacility id="0779ca36-ffb7-42fd-b300-ce9fe1c8b4e5" x="660480.2918241448" y="6618440.399545974" linkRefId="182251283_0" isBlocking="false"/>
		<stopFacility id="077a8b22-9924-4cb6-bd97-cf9fc5d0a498" x="683967.7331860173" y="6654450.883324788" linkRefId="31366755_0" isBlocking="false"/>
		<stopFacility id="077c5dec-c097-4ef3-ad56-ab6754126d98" x="674088.627204685" y="6631244.515989295" linkRefId="200612069_0" isBlocking="false"/>
		<stopFacility id="0784eac2-5051-4832-a5ac-fc13295c9b91" x="670046.6073207903" y="6638927.044161042" linkRefId="202425901_0" isBlocking="false"/>
		<stopFacility id="078b9b38-9366-46c3-9be0-b1a5c71e2a26" x="654640.4223349888" y="6684608.955312239" linkRefId="240577_0" isBlocking="false"/>
		<stopFacility id="0792e17a-89cc-4fea-b092-84779ecffb00" x="648078.5900599941" y="6675982.998504805" linkRefId="170333409_0" isBlocking="false"/>
		<stopFacility id="079c0690-302f-48a4-a7bf-93d214175a45" x="691264.5964294868" y="6652892.86427446" linkRefId="183889987_1" isBlocking="false"/>
		<stopFacility id="07a2a21c-00e9-4973-8a9d-78c53030b576" x="679032.7310595142" y="6658923.45198284" linkRefId="235425_0" isBlocking="false"/>
		<stopFacility id="07a897ac-2a82-430b-8158-9adef865faa3" x="694629.791071661" y="6624524.0995680485" linkRefId="179653664_0" isBlocking="false"/>
		<stopFacility id="07a9ece2-a523-4afb-8d17-9cfda596e107" x="685672.7123477219" y="6654018.839804812" linkRefId="96408053_1" isBlocking="false"/>
		<stopFacility id="07ab5618-ffef-4182-8966-d85f7cad84f9" x="701528.8660856899" y="6628024.296676144" linkRefId="308109730_2" isBlocking="false"/>
		<stopFacility id="07b21399-c913-41fe-9b4e-3354fdf2cf07" x="688866.3396199001" y="6638002.021672113" linkRefId="31370645_0" isBlocking="false"/>
		<stopFacility id="07bb4f51-c470-46f1-93f2-7fcb35a9bda3" x="689890.078034039" y="6653009.290101578" linkRefId="195761802_0" isBlocking="false"/>
		<stopFacility id="07c1cb9e-fb43-49f5-8447-48eed2181675" x="691913.2769212682" y="6652371.388017529" linkRefId="31366778_8" isBlocking="false"/>
		<stopFacility id="07c93f33-2b4c-4e94-b2d9-8a30553e0bee" x="692710.9986575317" y="6626150.830517937" linkRefId="1899707_0" isBlocking="false"/>
		<stopFacility id="07cad29e-2021-446a-8633-6ee000bc98cb" x="694182.4819569726" y="6653316.19105819" linkRefId="56690822_0" isBlocking="false"/>
		<stopFacility id="07cbddc5-2b4c-4d76-b280-c4347ce5207a" x="694243.0344176902" y="6650022.629535954" linkRefId="31371305_1" isBlocking="false"/>
		<stopFacility id="07cc88e0-ef25-4890-9012-168cf2090793" x="690634.335185166" y="6651796.915001306" linkRefId="362911259_0" isBlocking="false"/>
		<stopFacility id="07ce7a6a-7a8f-48a9-a64b-d7647c5e3107" x="684681.451736481" y="6635646.544845599" linkRefId="160892099_0" isBlocking="false"/>
		<stopFacility id="07d279e7-c50b-4d13-a8e1-20fd6db3eea4" x="687017.6350195495" y="6638171.730469073" linkRefId="181395506_1" isBlocking="false"/>
		<stopFacility id="07dfe8ae-57d4-4251-8d35-1a25a3873c28" x="680642.4252545189" y="6637434.250586852" linkRefId="347257560_1" isBlocking="false"/>
		<stopFacility id="07e19add-08db-4481-8c91-7c052c3f85f3" x="684149.9122266533" y="6652033.49077921" linkRefId="31381125_0" isBlocking="false"/>
		<stopFacility id="07e6b1eb-eb55-43ea-8118-d3d08fc78385" x="681558.4132639454" y="6655412.024096961" linkRefId="528751504_0" isBlocking="false"/>
		<stopFacility id="07e9a592-4149-4759-9138-d72b29d8ded6" x="688013.3867421156" y="6630319.050288399" linkRefId="368425686_1" isBlocking="false"/>
		<stopFacility id="07eab542-fc21-4dc7-97f5-ffc9d8cb478f" x="660970.9720597896" y="6642499.922153239" linkRefId="221510781_0" isBlocking="false"/>
		<stopFacility id="07ec2cd0-2a3d-4783-8a71-18372c99cdf2" x="689866.0228160354" y="6638127.581004115" linkRefId="357552576_2" isBlocking="false"/>
		<stopFacility id="07f09253-1b26-433c-b380-42df1608b935" x="683565.386817656" y="6638506.808846242" linkRefId="344539069_0" isBlocking="false"/>
		<stopFacility id="07f54085-c049-4241-85e5-2799abdc7e84" x="686128.3516008713" y="6646210.275551085" linkRefId="480786_0" isBlocking="false"/>
		<stopFacility id="07f8db40-1044-4933-bc31-cb2471b3f42d" x="687317.1449439067" y="6657219.639390916" linkRefId="31387755_3" isBlocking="false"/>
		<stopFacility id="07fe126b-99a2-4ba0-a543-603844277823" x="675854.5452128751" y="6639681.24073926" linkRefId="314961537_0" isBlocking="false"/>
		<stopFacility id="0800feea-b620-42bb-9ec9-799a02876945" x="690412.7161512406" y="6658382.123779917" linkRefId="31376272_0" isBlocking="false"/>
		<stopFacility id="0802f10c-a29a-4978-849f-d79fe1aca466" x="691785.5025856241" y="6626133.524951928" linkRefId="1902768_1" isBlocking="false"/>
		<stopFacility id="0805e28e-0111-4355-9349-d8e15203bd26" x="686612.0361167754" y="6639618.6777507765" linkRefId="315200373_0" isBlocking="false"/>
		<stopFacility id="080b34f5-372d-4910-9c7a-5ec17b95b377" x="683118.3442026284" y="6639488.739642731" linkRefId="211776553_0" isBlocking="false"/>
		<stopFacility id="0812e4ba-1a10-496b-a40c-e39d242dea78" x="691309.5557232791" y="6656897.117351321" linkRefId="197935140_0" isBlocking="false"/>
		<stopFacility id="081bd542-eba5-4919-bd16-a505b23805a6" x="684740.1197684172" y="6639536.074099043" linkRefId="394282267_0" isBlocking="false"/>
		<stopFacility id="081be9c8-63d6-42bd-b261-20b7d76cd880" x="696449.1963628135" y="6628617.908289459" linkRefId="175802930_0" isBlocking="false"/>
		<stopFacility id="082221b3-395a-47de-8701-8dc8cf157f43" x="672581.5462402893" y="6619102.096083834" linkRefId="223472017_0" isBlocking="false"/>
		<stopFacility id="0824fbce-a6ff-4edd-a3fc-760c1fd4f842" x="694478.1435184665" y="6651367.964201262" linkRefId="31395461_0" isBlocking="false"/>
		<stopFacility id="082c820a-76d0-48f8-9a13-25d95e546d80" x="685020.928472243" y="6648868.670109646" linkRefId="145739766_0" isBlocking="false"/>
		<stopFacility id="082d0b89-6a77-435e-b257-ebad7f8da55d" x="674402.9846559367" y="6627678.096670879" linkRefId="475098670_0" isBlocking="false"/>
		<stopFacility id="083062eb-9daf-49df-bf7e-8fa39e5761ae" x="673184.7364535808" y="6639009.060915719" linkRefId="177909860_0" isBlocking="false"/>
[...]
				<link refId="231551_0"/>
				<link refId="231553_0"/>
				<link refId="231555_0"/>
				<link refId="231557_0"/>
				<link refId="231559_0"/>
				<link refId="231561_0"/>
				<link refId="231563_0"/>
				<link refId="231565_0"/>
				<link refId="231567_0"/>
				<link refId="231569_0"/>
				<link refId="231571_0"/>
				<link refId="231573_0"/>
				<link refId="231575_0"/>
				<link refId="231577_0"/>
				<link refId="231579_0"/>
				<link refId="231581_0"/>
				<link refId="231583_0"/>
				<link refId="231585_0"/>
				<link refId="231587_0"/>
				<link refId="231589_0"/>
				<link refId="231591_0"/>
				<link refId="231593_0"/>
				<link refId="231595_0"/>
				<link refId="231597_0"/>
				<link refId="231599_0"/>
				<link refId="231601_0"/>
				<link refId="231603_0"/>
				<link refId="231605_0"/>
				<link refId="231607_0"/>
				<link refId="231609_0"/>
				<link refId="231611_0"/>
				<link refId="231613_0"/>
				<link refId="231615_0"/>
				<link refId="231617_0"/>
				<link refId="231619_0"/>
				<link refId="231621_0"/>
				<link refId="231623_0"/>
				<link refId="231625_0"/>
				<link refId="172999960_0"/>
				<link refId="243819_0"/>
				<link refId="27462206_0"/>
				<link refId="243815_0"/>
				<link refId="243801_0"/>
				<link refId="243805_0"/>
				<link refId="243811_0"/>
				<link refId="189271976_0"/>
				<link refId="241471_0"/>
				<link refId="241473_0"/>
				<link refId="183912266_0"/>
				<link refId="241487_0"/>
				<link refId="238667_0"/>
				<link refId="183912269_0"/>
				<link refId="183921953_0"/>
				<link refId="183921952_0"/>
				<link refId="397223750_0"/>
				<link refId="183912265_0"/>
				<link refId="80056721_0"/>
				<link refId="80056747_0"/>
				<link refId="375574640_0"/>
				<link refId="375646973_0"/>
				<link refId="81348980_0"/>
				<link refId="3650319_0"/>
				<link refId="28935149_0"/>
				<link refId="28935146_0"/>
				<link refId="239581_0"/>
				<link refId="223470730_0"/>
				<link refId="442653618_0"/>
				<link refId="406778557_0"/>
				<link refId="548529417_0"/>
				<link refId="548529417_1"/>
				<link refId="548529417_2"/>
				<link refId="548529417_3"/>
				<link refId="240081_0"/>
				<link refId="240081_1"/>
				<link refId="461674945_0"/>
				<link refId="244429255_0"/>
				<link refId="290594_0"/>
				<link refId="197374296_0"/>
				<link refId="326724978_0"/>
				<link refId="326724978_1"/>
				<link refId="194461682_0"/>
				<link refId="222864372_0"/>
				<link refId="194461684_0"/>
				<link refId="347353339_0"/>
				<link refId="347353339_1"/>
				<link refId="347353339_2"/>
				<link refId="347353350_0"/>
				<link refId="348026142_0"/>
				<link refId="348026142_1"/>
				<link refId="348026142_2"/>
				<link refId="348026142_3"/>
				<link refId="348026142_4"/>
				<link refId="348026142_5"/>
				<link refId="348026142_6"/>
				<link refId="347353357_0"/>
				<link refId="347353356_0"/>
				<link refId="347353356_1"/>
				<link refId="395875261_0"/>
				<link refId="347355173_0"/>
				<link refId="347355173_1"/>
				<link refId="347355173_2"/>
				<link refId="347258831_0"/>
				<link refId="375493507_0"/>
				<link refId="347258828_0"/>
				<link refId="347260847_0"/>
				<link refId="4458973_0"/>
				<link refId="347258838_0"/>
				<link refId="364432259_0"/>
				<link refId="200576191_0"/>
				<link refId="459068258_0"/>
			</route>
			<departures>
				<departure id="id_457" departureTime="00:00:00" vehicleRefId="pt_457"/>
				<departure id="id_458" departureTime="00:30:00" vehicleRefId="pt_458"/>
				<departure id="id_459" departureTime="01:00:00" vehicleRefId="pt_459"/>
				<departure id="id_460" departureTime="01:30:00" vehicleRefId="pt_460"/>
				<departure id="id_461" departureTime="02:00:00" vehicleRefId="pt_461"/>
				<departure id="id_462" departureTime="02:30:00" vehicleRefId="pt_462"/>
				<departure id="id_463" departureTime="03:00:00" vehicleRefId="pt_463"/>
				<departure id="id_464" departureTime="03:30:00" vehicleRefId="pt_464"/>
				<departure id="id_465" departureTime="04:00:00" vehicleRefId="pt_465"/>
				<departure id="id_466" departureTime="04:30:00" vehicleRefId="pt_466"/>
				<departure id="id_467" departureTime="05:00:00" vehicleRefId="pt_467"/>
				<departure id="id_468" departureTime="05:30:00" vehicleRefId="pt_468"/>
			</departures>
		</transitRoute>
		<transitRoute id="951954ed-c050-4dc5-813f-ceb5e7115e23">
			<transportMode>pt</transportMode>
			<routeProfile>
				<stop refId="5a5d7259-cde9-4a34-a87c-2639ba86733f" arrivalOffset="00:01:22" departureOffset="00:01:32" awaitDeparture="false"/>
				<stop refId="1abe420f-e54a-43ec-b0f1-9258e258098d" arrivalOffset="00:03:23" departureOffset="00:03:33" awaitDeparture="false"/>
				<stop refId="6111414e-4610-4599-bcb7-796d6b75b779" arrivalOffset="00:03:41" departureOffset="00:03:51" awaitDeparture="false"/>
				<stop refId="3f7da7ec-e367-4019-992a-e7042a0bc141" arrivalOffset="00:05:18" departureOffset="00:05:28" awaitDeparture="false"/>
				<stop refId="080b34f5-372d-4910-9c7a-5ec17b95b377" arrivalOffset="00:09:53" departureOffset="00:10:03" awaitDeparture="false"/>
				<stop refId="28023c02-e7fa-420f-895c-8b48ba85a1c3" arrivalOffset="01:20:03" departureOffset="01:20:13" awaitDeparture="false"/>
				<stop refId="bc76640b-f14a-457a-8807-d76dd2868655" arrivalOffset="01:24:57" departureOffset="01:25:07" awaitDeparture="false"/>
				<stop refId="33c92cff-4cc9-45c8-a1cf-9e4652aeec8a" arrivalOffset="01:27:07" departureOffset="01:27:17" awaitDeparture="false"/>
				<stop refId="f20df780-f9c5-4390-9b91-2b616abeacfe" arrivalOffset="01:29:37" departureOffset="01:29:47" awaitDeparture="false"/>
				<stop refId="614c9e2e-1b37-4223-816f-5b0c999e0a57" arrivalOffset="01:32:09" departureOffset="01:32:19" awaitDeparture="false"/>
				<stop refId="c926e0ec-c6e5-4959-9b0f-05d8571e219d" arrivalOffset="01:33:53" departureOffset="01:34:03" awaitDeparture="false"/>
				<stop refId="1f2778ee-eff2-435b-b888-4b61b1760cbc" arrivalOffset="01:36:04" departureOffset="01:36:14" awaitDeparture="false"/>
				<stop refId="38a2b506-c4fa-4838-b64c-df05c232ce20" arrivalOffset="01:42:33" departureOffset="01:42:43" awaitDeparture="false"/>
				<stop refId="4a6e967a-6e6f-4666-971f-dbb5ff00034a" arrivalOffset="01:44:42" departureOffset="01:44:52" awaitDeparture="false"/>
				<stop refId="13efb5a3-b37f-4124-83e7-8a395055f6d7" arrivalOffset="01:45:18" departureOffset="01:45:28" awaitDeparture="false"/>
				<stop refId="34c4237c-19f6-4c9a-a407-a1168d5dc870" arrivalOffset="01:47:09" departureOffset="01:47:19" awaitDeparture="false"/>
				<stop refId="a4d945d0-baf5-4b04-982b-38975a8566d2" arrivalOffset="01:48:50" departureOffset="01:49:00" awaitDeparture="false"/>
				<stop refId="131aade4-dd04-44b0-8f85-ddcfd809308b" arrivalOffset="01:49:11" departureOffset="01:49:21" awaitDeparture="false"/>
				<stop refId="1871211b-23fd-4b6e-aac9-b87120964bff" arrivalOffset="01:49:22" departureOffset="01:49:32" awaitDeparture="false"/>
				<stop refId="4e106cb6-e397-41b5-aa73-2a61e7bb442c" arrivalOffset="01:50:31" departureOffset="01:50:41" awaitDeparture="false"/>
				<stop refId="2a14a74a-79df-48b0-8d5b-82d8a175fb8d" arrivalOffset="01:52:22" departureOffset="01:52:32" awaitDeparture="false"/>
				<stop refId="342f0d2b-7337-42ad-86de-cd2d0257790b" arrivalOffset="01:53:57" departureOffset="01:54:07" awaitDeparture="false"/>
				<stop refId="1be42ba8-422a-4e99-aa1a-2de91ea7d735" arrivalOffset="01:54:58" departureOffset="01:55:08" awaitDeparture="false"/>
			</routeProfile>
			<route>
				<link refId="200576191_0_r"/>
				<link refId="364432259_0_r"/>
				<link refId="347258838_0_r"/>
				<link refId="347258824_0"/>
				<link refId="347260846_0"/>
				<link refId="347258837_0"/>
				<link refId="347258837_1"/>
				<link refId="347258810_0"/>
				<link refId="73686286_0"/>
				<link refId="38822261_0"/>
				<link refId="347354575_0"/>
				<link refId="400677470_0"/>
				<link refId="385583437_0"/>
				<link refId="347354576_0"/>
				<link refId="347353351_0"/>
				<link refId="347353941_0"/>
				<link refId="347353941_1"/>
				<link refId="347353941_2"/>
				<link refId="347353941_3"/>
				<link refId="347353941_4"/>
				<link refId="347353941_5"/>
				<link refId="347353941_6"/>
				<link refId="347353340_0"/>
				<link refId="211776543_0"/>
				<link refId="211776550_0"/>
				<link refId="211776553_0"/>
				<link refId="361734409_0"/>
				<link refId="80056744_0"/>
				<link refId="31387524_2"/>
				<link refId="315368400_0"/>
				<link refId="112012374_0"/>
				<link refId="290503_0"/>
				<link refId="290504_0"/>
				<link refId="80056733_0"/>
				<link refId="31387932_0"/>
				<link refId="80056740_0"/>
				<link refId="240075_0"/>
				<link refId="28935141_0"/>
				<link refId="239573_0"/>
				<link refId="239567_0"/>
				<link refId="239569_0"/>
				<link refId="28935142_0"/>
				<link refId="80056723_0"/>
				<link refId="80056748_0"/>
				<link refId="139658547_0"/>
				<link refId="461676671_0"/>
				<link refId="80056745_0"/>
				<link refId="80056716_0"/>
				<link refId="381576632_0"/>
				<link refId="381576631_0"/>
				<link refId="123709500_0"/>
				<link refId="123709505_0"/>
				<link refId="183912267_0"/>
				<link refId="241477_0"/>
				<link refId="241479_0"/>
				<link refId="397223751_0"/>
				<link refId="397223752_0"/>
				<link refId="397223749_0"/>
				<link refId="241475_0"/>
				<link refId="183912268_0"/>
				<link refId="85763340_0"/>
				<link refId="243809_0"/>
				<link refId="243807_0"/>
				<link refId="243803_0"/>
				<link refId="223744446_0"/>
				<link refId="243813_0"/>
				<link refId="243817_0"/>
				<link refId="185060386_0"/>
				<link refId="119176950_0"/>
				<link refId="119176946_0"/>
				<link refId="172999959_0"/>
				<link refId="231627_0"/>
				<link refId="231629_0"/>
				<link refId="231631_0"/>
				<link refId="231633_0"/>
				<link refId="231635_0"/>
				<link refId="231637_0"/>
				<link refId="231639_0"/>
				<link refId="231641_0"/>
				<link refId="231643_0"/>
				<link refId="231645_0"/>
				<link refId="231647_0"/>
				<link refId="231649_0"/>
				<link refId="231651_0"/>
				<link refId="231653_0"/>
				<link refId="373871040_0"/>
				<link refId="231473_0"/>
				<link refId="231475_0"/>
				<link refId="231477_0"/>
				<link refId="231479_0"/>
				<link refId="231481_0"/>
				<link refId="231483_0"/>
				<link refId="231485_0"/>
				<link refId="231487_0"/>
				<link refId="231489_0"/>
				<link refId="231491_0"/>
				<link refId="231493_0"/>
				<link refId="231495_0"/>
				<link refId="231497_0"/>
				<link refId="231499_0"/>
				<link refId="231501_0"/>
				<link refId="231503_0"/>
				<link refId="231505_0"/>
				<link refId="231507_0"/>
				<link refId="231509_0"/>
				<link refId="231511_0"/>
				<link refId="231513_0"/>
				<link refId="231515_0"/>
				<link refId="231517_0"/>
				<link refId="231519_0"/>
				<link refId="231521_0"/>
				<link refId="231523_0"/>
				<link refId="231525_0"/>
				<link refId="231527_0"/>
				<link refId="231529_0"/>
				<link refId="231531_0"/>
				<link refId="231533_0"/>
				<link refId="222395960_0"/>
				<link refId="222395960_1"/>
				<link refId="222395960_2"/>
				<link refId="130062822_0"/>
				<link refId="232183_0"/>
				<link refId="232185_0"/>
				<link refId="232187_0"/>
				<link refId="232189_0"/>
				<link refId="232191_0"/>
				<link refId="232193_0"/>
				<link refId="232195_0"/>
				<link refId="232197_0"/>
				<link refId="232199_0"/>
				<link refId="232201_0"/>
				<link refId="232203_0"/>
				<link refId="232205_0"/>
				<link refId="232207_0"/>
				<link refId="232209_0"/>
				<link refId="232211_0"/>
				<link refId="232213_0"/>
				<link refId="232215_0"/>
				<link refId="232217_0"/>
				<link refId="130068396_0"/>
				<link refId="350477988_0"/>
				<link refId="350477988_1"/>
				<link refId="173215332_0"/>
				<link refId="232121_0"/>
				<link refId="232123_0"/>
				<link refId="232125_0"/>
				<link refId="232127_0"/>
				<link refId="232129_0"/>
				<link refId="351741897_0"/>
				<link refId="351741897_1"/>
				<link refId="351741898_0"/>
				<link refId="351741890_0"/>
				<link refId="232651_0"/>
				<link refId="232653_0"/>
				<link refId="232655_0"/>
				<link refId="232657_0"/>
				<link refId="232659_0"/>
				<link refId="232661_0"/>
				<link refId="232663_0"/>
				<link refId="232665_0"/>
				<link refId="232667_0"/>
				<link refId="232669_0"/>
				<link refId="232671_0"/>
				<link refId="232673_0"/>
				<link refId="302687682_0"/>
				<link refId="234925_0"/>
				<link refId="234927_0"/>
				<link refId="234929_0"/>
				<link refId="234931_0"/>
				<link refId="234933_0"/>
				<link refId="454291574_0"/>
				<link refId="456860670_0"/>
				<link refId="456860674_0"/>
				<link refId="234891_0"/>
				<link refId="234893_0"/>
				<link refId="234895_0"/>
				<link refId="234897_0"/>
				<link refId="234899_0"/>
				<link refId="234901_0"/>
				<link refId="234903_0"/>
				<link refId="234905_0"/>
				<link refId="321630655_0"/>
				<link refId="401751608_0"/>
				<link refId="234977_0"/>
				<link refId="234979_0"/>
				<link refId="234981_0"/>
				<link refId="234983_0"/>
				<link refId="234985_0"/>
				<link refId="234987_0"/>
				<link refId="234989_0"/>
				<link refId="234991_0"/>
				<link refId="234993_0"/>
				<link refId="234995_0"/>
				<link refId="234997_0"/>
				<link refId="234999_0"/>
				<link refId="235001_0"/>
				<link refId="235003_0"/>
				<link refId="235005_0"/>
				<link refId="235007_0"/>
				<link refId="235009_0"/>
				<link refId="235011_0"/>
				<link refId="235013_0"/>
				<link refId="235015_0"/>
				<link refId="235017_0"/>
				<link refId="235019_0"/>
				<link refId="235021_0"/>
				<link refId="235023_0"/>
				<link refId="235025_0"/>
				<link refId="401751599_0"/>
				<link refId="232675_0"/>
				<link refId="232677_0"/>
				<link refId="232679_0"/>
				<link refId="232681_0"/>
				<link refId="232683_0"/>
				<link refId="232685_0"/>
				<link refId="173215330_0"/>
				<link refId="351741895_0"/>
				<link refId="232089_0"/>
				<link refId="232091_0"/>
				<link refId="232093_0"/>
				<link refId="232095_0"/>
				<link refId="232097_0"/>
				<link refId="232099_0"/>
				<link refId="232101_0"/>
				<link refId="232103_0"/>
				<link refId="232105_0"/>
				<link refId="232107_0"/>
				<link refId="232109_0"/>
				<link refId="232111_0"/>
				<link refId="232113_0"/>
				<link refId="232115_0"/>
				<link refId="232117_0"/>
				<link refId="232119_0"/>
				<link refId="231669_0"/>
				<link refId="231671_0"/>
				<link refId="231673_0"/>
				<link refId="231675_0"/>
				<link refId="231677_0"/>
				<link refId="231679_0"/>
				<link refId="231681_0"/>
				<link refId="231683_0"/>
				<link refId="231685_0"/>
				<link refId="231687_0"/>
				<link refId="231689_0"/>
				<link refId="231691_0"/>
				<link refId="231693_0"/>
				<link refId="231695_0"/>
				<link refId="231697_0"/>
				<link refId="231699_0"/>
				<link refId="231701_0"/>
				<link refId="231703_0"/>
				<link refId="231705_0"/>
				<link refId="231707_0"/>
				<link refId="231709_0"/>
				<link refId="231711_0"/>
				<link refId="231713_0"/>
				<link refId="231715_0"/>
				<link refId="231717_0"/>
				<link refId="231719_0"/>
				<link refId="231721_0"/>
				<link refId="231723_0"/>
				<link refId="231725_0"/>
				<link refId="231727_0"/>
				<link refId="231729_0"/>
				<link refId="231731_0"/>
				<link refId="231733_0"/>
				<link refId="231735_0"/>
				<link refId="231737_0"/>
				<link refId="231739_0"/>
				<link refId="231741_0"/>
				<link refId="231743_0"/>
				<link refId="231745_0"/>
				<link refId="231747_0"/>
				<link refId="231749_0"/>
				<link refId="231751_0"/>
				<link refId="123232666_0"/>
				<link refId="231849_0"/>
				<link refId="231851_0"/>
				<link refId="231853_0"/>
				<link refId="231855_0"/>
				<link refId="231857_0"/>
				<link refId="231859_0"/>
				<link refId="231861_0"/>
				<link refId="231863_0"/>
				<link refId="123232668_0"/>
				<link refId="123303017_0"/>
				<link refId="232207286_0"/>
				<link refId="233261_0"/>
				<link refId="233263_0"/>
				<link refId="233265_0"/>
				<link refId="233267_0"/>
				<link refId="233269_0"/>
				<link refId="233271_0"/>
				<link refId="493643653_0"/>
				<link refId="165031082_0"/>
				<link refId="231407_0"/>
				<link refId="231409_0"/>
				<link refId="252148968_0"/>
				<link refId="231417_0"/>
				<link refId="355755817_0"/>
				<link refId="151490266_0"/>
				<link refId="355755820_0"/>
				<link refId="192140964_0"/>
				<link refId="192140963_0"/>
				<link refId="231341_0"/>
				<link refId="231343_0"/>
				<link refId="231345_0"/>
				<link refId="231347_0"/>
				<link refId="231349_0"/>
				<link refId="231351_0"/>
				<link refId="231353_0"/>
				<link refId="231355_0"/>
				<link refId="231357_0"/>
				<link refId="231359_0"/>
				<link refId="231361_0"/>
				<link refId="312063985_0"/>
				<link refId="233102368_0_r"/>
				<link refId="305954308_0_r"/>
				<link refId="170554646_0_r"/>
				<link refId="301784317_0_r"/>
				<link refId="79629141_0_r"/>
				<link refId="142716244_0_r"/>
				<link refId="70264331_0_r"/>
				<link refId="79629132_0_r"/>
				<link refId="31378656_0"/>
				<link refId="31378656_1"/>
				<link refId="31378656_2"/>
				<link refId="397760518_0"/>
				<link refId="397760519_0"/>
				<link refId="198287567_0"/>
				<link refId="198287569_0"/>
				<link refId="198287571_0"/>
				<link refId="135508798_0"/>
				<link refId="326522008_0"/>
				<link refId="42444761_0"/>
				<link refId="112476367_0"/>
				<link refId="79629136_0"/>
				<link refId="112476365_0"/>
				<link refId="112476365_1"/>
				<link refId="137381094_0"/>
				<link refId="136694855_0"/>
				<link refId="343513736_0"/>
				<link refId="172372867_0"/>
				<link refId="31400598_0"/>
				<link refId="242927_0"/>
				<link refId="242923_0"/>
				<link refId="305180038_0"/>
				<link refId="369379956_0"/>
				<link refId="194850809_0"/>
				<link refId="194850807_0"/>
				<link refId="194850812_0"/>
				<link refId="194850812_1"/>
				<link refId="486909_0"/>
				<link refId="551022326_0"/>
				<link refId="549780853_0"/>
				<link refId="45100358_0"/>
				<link refId="142997520_0"/>
				<link refId="142997521_0"/>
				<link refId="142997521_1"/>
				<link refId="170371025_0"/>
				<link refId="142997519_0"/>
				<link refId="327576191_0"/>
				<link refId="327576191_1"/>
				<link refId="348102919_0"/>
				<link refId="143013960_0"/>
				<link refId="143128337_0"/>
				<link refId="143128338_0"/>
				<link refId="143128340_0"/>
				<link refId="143128335_0"/>
				<link refId="194782631_0"/>
				<link refId="193597261_0"/>
				<link refId="300063711_0"/>
				<link refId="300063711_1"/>
				<link refId="300063711_2"/>
				<link refId="31369237_0"/>
				<link refId="230685372_0"/>
				<link refId="89939118_0"/>
				<link refId="31370573_0"/>
				<link refId="198269753_0"/>
				<link refId="183881248_0_r"/>
			</route>
			<departures>
				<departure id="id_469" departureTime="00:00:00" vehicleRefId="pt_469"/>
				<departure id="id_470" departureTime="00:30:00" vehicleRefId="pt_470"/>
				<departure id="id_471" departureTime="01:00:00" vehicleRefId="pt_471"/>
				<departure id="id_472" departureTime="01:30:00" vehicleRefId="pt_472"/>
				<departure id="id_473" departureTime="02:00:00" vehicleRefId="pt_473"/>
				<departure id="id_474" departureTime="02:30:00" vehicleRefId="pt_474"/>
				<departure id="id_475" departureTime="03:00:00" vehicleRefId="pt_475"/>
				<departure id="id_476" departureTime="03:30:00" vehicleRefId="pt_476"/>
				<departure id="id_477" departureTime="04:00:00" vehicleRefId="pt_477"/>
				<departure id="id_478" departureTime="04:30:00" vehicleRefId="pt_478"/>
				<departure id="id_479" departureTime="05:00:00" vehicleRefId="pt_479"/>
				<departure id="id_480" departureTime="05:30:00" vehicleRefId="pt_480"/>
			</departures>
		</transitRoute>
	</transitLine>
</transitSchedule>